Using: /programs/synopsys/hspice/current/hspice/linux64/hspice 10T-toyR.sp
 ****** PrimeSim HSPICE -- R-2020.12-SP1 linux64 (Apr 10 2021 6983340) ******
  Copyright (c) 1986 - 2021 by Synopsys, Inc. All Rights Reserved.
  This software and the associated documentation are proprietary
  to Synopsys, Inc. This software may only be used in accordance
  with the terms and conditions of a written license agreement with
  Synopsys, Inc. All other use, reproduction, or distribution of
  this software is strictly prohibited.
  Input File: 10T-toyR.sp                                                       
  Command line options: /programs/synopsys/hspice/current/hspice/linux64/hspice 10T-toyR.sp
  Start time: Fri Nov 19 11:22:10 2021
 lic:  
 lic: FLEXlm: SDK_12.9.5 
 lic: USER:   jstine               HOSTNAME: rivendell.ecen.okstate.edu 
 lic: HOSTID: "2c44fd862b18"       PID:      120226 
 lic: Using FLEXlm license file: 
 lic: 27020@trelaina.ecen.okstate.edu 
 lic: Checkout 1 hspice 
 lic: License/Maintenance for hspice will expire on 27-jan-2022/2020.12 
 lic: 1(in_use)/50(total) FLOATING license(s) on SERVER 27020@trelaina.ecen.okstate.edu 
 lic:   
  **warning** (/home/tdene/Public/skywater-src-nda/s8_spice_models/models.all:10) Unknown option mc_ignore_binning. Check the option name again.
1****** PrimeSim HSPICE -- R-2020.12-SP1 linux64 (Apr 10 2021 6983340) ******
 ******  
 *

 ****** circuit name directory
 circuit number to circuit name directory
   number circuitname                     definition         multiplier
        0 main circuit
        1 x1.                             mem10t-toy         1.00 
        2 x1.xinvm.                       invm               1.00 
        3 x1.xinv.                        invm               1.00 
  **warning** (10T-toyR.sp:13) Both nodes of element vgnd are connected together; Line ignored.
  **info** (10T-toyR.sp:32) DC voltage reset to initial transient source value in source 0:vin1. new dc=0.0000D+00
 ***************************************************************************
 ***        model parameters  model name:   0:npass.0          model type:nmos   ***
 ***************************************************************************

   *** general parameters ***
    deriv=   0.           

   ***  level 49  model parameters  ***

      hspver=    2006.03               level=         49         
     version=        3.2            paramchk=          0         
      apwarn=          1                lite=          0         
      vgslim=          0             binUnit=          2         
      capMod=          3               xpart=          0         
      mobMod=          1              nqsMod=          0         
      stiMod=          0                 elm=          0         
    sfvtflag=          0                 tox=  4.148e-09 meter   
          xj=    1.2e-07 meter       binflag=          0         
        lmin=    7.5e-08 meter          lmax=  1.505e-07 meter   
        wmin=  1.395e-07 meter          wmax=  1.405e-07 meter   
        lref=          0 meter          wref=          0 meter   
        lint=          0 meter          wint=          0 meter   
       lmult=          1               wmult=          1         
          ll=          0                 lln=          1         
          lw=          0                 lwn=          1         
         lwl=          0                  wl=          0         
         wln=          1                  ww=          0         
         wwn=          1                 wwl=          0         
         dwg=          0 m/V             dwb=          0 m/V^1/2 
          xl=          0                  xw=          0         
          a0=          1                 ags=     0.5115 V^-1    
          b0=          0 meter            b1=          0 meter   
        keta=  -0.061906 V^-1           voff=   -0.15507 V       
       ngate=      1e+23 cm^-3           vbx=          0 V       
         vbm=         -3 V                xt=   1.55e-07 meter   
        vth0=   0.677612 V               nch=1.12471e+18 cm^-3   
        nsub=      6e+16 cm^-3           nlx=          0 meter   
      gamma1=          0 V^-1/2       gamma2=          0 V^-1/2  
          k1=    0.53066 V^1/2            k2=   -0.12745         
          k3=          0                 k3b=          0 V^-1    
          w0=      1e-06 meter          dvt0=          0         
        dvt1=       0.53                dvt2=          0 V^-1    
       dvt0w=          0 meter^-1      dvt1w=      10100 meter^-1
       dvt2w=          0 V^-1           dsub=        0.5         
        eta0=     0.1168                etab=    0.00804 V^-1    
          u0=  0.0129974 m^2/V/sec         ua=-1.9925e-09 m/V     
          ub= 1.9307e-18 (m/V)^2          uc= 4.5872e-11 V^-1    
        vsat=     101250 m/sec            a1=          0 v^-1    
          a2=          1               delta=     0.0104 V       
        rdsw=    103.211 ohm-um         prwg=        0.2 V^-1    
        prwb=        0.3 V^-1/2           wr=          1         
        pclm=    0.93451             pdiblc1=          0         
     pdiblc2=   0.035291             pdiblcb=   -0.15462 V^-1    
      pscbe1= 7.8166e+08 V/m          pscbe2=      1e-20 V/m     
       drout=        0.5                pvag=          0         
     nfactor=     1.7935                cdsc=          0 f/m^2   
       cdscb=          0 f/V/m^2       cdscd=          0 f/V/m^2 
         cit=          0 f/m^2        alpha0= 0.00064059 m/V     
       beta0=       26.6 V               dlc= 1.8739e-08 meter   
         dwc=          0 meter           clc=      1e-07 meter   
         cle=        0.6                cgso=3.14944e-10 f/m     
        cgdo=3.14944e-10 f/m            cgbo=      1e-13 f/m     
        cgsl=          0 f/m            cgdl=          0 f/m     
      ckappa=        0.6                  cf= 1.4067e-12 f/m     
        acde=        0.4 m/V            moin=        6.9 V^1/2   
        toxm=  4.148e-09 m            dtoxcv=          0 m       
         vfb=    -0.9693 V            alpha1=          0 1/V     
        ijth=        0.1 A              noff=      3.621         
      voffcv=    -0.1372                 tcj=   0.000792 1/K     
       tcjsw=      1e-05 1/K          tcjswg=          0 1/K     
         tpb=  0.0012287 V/K           tpbsw=          0 V/K     
      tpbswg=          0 V/K             llc=          0         
         lwc=          0                lwlc=          0         
         wlc=          0                 wwc=          0         
        wwlc=          0                tnom=     303.15 K       
         kt1=     -0.245 V              kt1l=          0         
         kt2=   -0.01458                 ute=    -1.1259         
         ua1= 3.7209e-10 m/V             ub1=-1.3557e-19 (m/V)^2 
         uc1=  -2.31e-12 m/V^2            at=      25430 m/s     
         prt=          0         
         using Berkeley noise model       noiMod=          2         
        noia=1.87794e+20                noib=    51258.8         
        noic=-5.97434e-13                  em=    4.1e+07         
          ef=   0.843936                  af=          1         
          kf=          0              gdsnoi=-1.23457e-29         
         using Berkeley diodes          not using ACM  
         acm=        12                 hdif=         0 meter    
        ldif=         0 meter             js=   0.00275 amp/m^2  
         jsw=     6e-10 amp/m            xti=         2          
          nj=    1.2928                   cj=0.00133975 f/m^2    
          mj=      0.44                   pb=     0.729 V        
        cjsw=3.67354e-11 f/m             mjsw=    0.0009          
         php (not used)                  pbsw=       0.2 V        
      cjgate (not used)                 cjswg=2.38233e-10 f/m      
       mjswg=       0.8                pbswg=   0.95578 V        
 ***************************************************************************
 ***        model parameters  model name:   0:npd.0            model type:nmos   ***
 ***************************************************************************

   *** general parameters ***
    deriv=   0.           

   ***  level 49  model parameters  ***

      hspver=    2006.03               level=         49         
     version=        3.2            paramchk=          0         
      apwarn=          1                lite=          0         
      vgslim=          0             binUnit=          2         
      capMod=          3               xpart=          0         
      mobMod=          1              nqsMod=          0         
      stiMod=          0                 elm=          0         
    sfvtflag=          0                 tox=  4.148e-09 meter   
          xj=    1.2e-07 meter       binflag=          0         
        lmin=    7.5e-08 meter          lmax=  1.505e-07 meter   
        wmin=  2.095e-07 meter          wmax=  2.105e-07 meter   
        lref=          0 meter          wref=          0 meter   
        lint=          0 meter          wint=          0 meter   
       lmult=          1               wmult=          1         
          ll=          0                 lln=          1         
          lw=          0                 lwn=          1         
         lwl=          0                  wl=          0         
         wln=          1                  ww=          0         
         wwn=          1                 wwl=          0         
         dwg=          0 m/V             dwb=          0 m/V^1/2 
          xl=          0                  xw=          0         
          a0=       -0.1                 ags=       0.02 V^-1    
          b0=          0 meter            b1=          0 meter   
        keta=  -0.019632 V^-1           voff=     -0.139 V       
       ngate=      1e+23 cm^-3           vbx=          0 V       
         vbm=         -3 V                xt=   1.55e-07 meter   
        vth0=   0.740032 V               nch=1.12471e+18 cm^-3   
        nsub=      6e+16 cm^-3           nlx=          0 meter   
      gamma1=          0 V^-1/2       gamma2=          0 V^-1/2  
          k1=      0.498 V^1/2            k2=    -0.1068         
          k3=          0                 k3b=          0 V^-1    
          w0=          0 meter          dvt0=          0         
        dvt1=       0.53                dvt2=          0 V^-1    
       dvt0w=          0 meter^-1      dvt1w=          0 meter^-1
       dvt2w=          0 V^-1           dsub=          0         
        eta0=       0.01                etab=    -0.0042 V^-1    
          u0=  0.0229197 m^2/V/sec         ua= -1.048e-09 m/V     
          ub= 1.2106e-18 (m/V)^2          uc= 6.2252e-11 V^-1    
        vsat=      82072 m/sec            a1=          0 v^-1    
          a2=       0.99               delta=      0.023 V       
        rdsw=    187.119 ohm-um         prwg=        0.2 V^-1    
        prwb=        0.3 V^-1/2           wr=          1         
        pclm=   0.934512             pdiblc1=          0         
     pdiblc2=   0.024526             pdiblcb=  0.0557367 V^-1    
      pscbe1= 7.7384e+08 V/m          pscbe2=    9.2e-21 V/m     
       drout=          0                pvag=          0         
     nfactor=      1.078                cdsc=          0 f/m^2   
       cdscb=          0 f/V/m^2       cdscd=          0 f/V/m^2 
         cit=          0 f/m^2        alpha0=    4.1e-06 m/V     
       beta0=      17.69 V               dlc= 1.8739e-08 meter   
         dwc=          0 meter           clc=      1e-07 meter   
         cle=        0.6                cgso=3.14944e-10 f/m     
        cgdo=3.14944e-10 f/m            cgbo=      1e-13 f/m     
        cgsl=          0 f/m            cgdl=          0 f/m     
      ckappa=        0.6                  cf= 1.4067e-12 f/m     
        acde=        0.4 m/V            moin=        6.9 V^1/2   
        toxm=  4.148e-09 m            dtoxcv=          0 m       
         vfb=    -0.9693 V            alpha1=          0 1/V     
        ijth=        0.1 A              noff=      3.621         
      voffcv=    -0.1372                 tcj=   0.000792 1/K     
       tcjsw=      1e-05 1/K          tcjswg=          0 1/K     
         tpb=  0.0012287 V/K           tpbsw=          0 V/K     
      tpbswg=          0 V/K             llc=          0         
         lwc=          0                lwlc=          0         
         wlc=          0                 wwc=          0         
        wwlc=          0                tnom=     303.15 K       
         kt1=    -0.2357 V              kt1l=          0         
         kt2=      -0.02                 ute=      -1.25         
         ua1=    5.5e-10 m/V             ub1=     -2e-19 (m/V)^2 
         uc1=   -3.5e-12 m/V^2            at=      31512 m/s     
         prt=    -8.0505         
         using Berkeley noise model       noiMod=          2         
        noia=1.87794e+20                noib=    51258.8         
        noic=-5.97434e-13                  em=    4.1e+07         
          ef=   0.843936                  af=          1         
          kf=          0              gdsnoi=-1.23457e-29         
         using Berkeley diodes          not using ACM  
         acm=        12                 hdif=         0 meter    
        ldif=         0 meter             js=   0.00275 amp/m^2  
         jsw=     6e-10 amp/m            xti=         2          
          nj=    1.2928                   cj=0.00133975 f/m^2    
          mj=      0.44                   pb=     0.729 V        
        cjsw=3.67354e-11 f/m             mjsw=    0.0009          
         php (not used)                  pbsw=       0.2 V        
      cjgate (not used)                 cjswg=2.38233e-10 f/m      
       mjswg=       0.8                pbswg=   0.95578 V        
 ***************************************************************************
 ***        model parameters  model name:   0:ppu.0            model type:pmos   ***
 ***************************************************************************

   *** general parameters ***
    deriv=   0.           

   ***  level 49  model parameters  ***

      hspver=    2006.03               level=         49         
     version=        3.2            paramchk=          0         
      apwarn=          1                lite=          0         
      vgslim=          0             binUnit=          2         
      capMod=          3               xpart=          0         
      mobMod=          1              nqsMod=          0         
      stiMod=          0                 elm=          0         
    sfvtflag=          0                 tox=  4.214e-09 meter   
          xj=   1.15e-07 meter       binflag=          0         
        lmin=  1.495e-07 meter          lmax=  1.505e-07 meter   
        wmin=  1.395e-07 meter          wmax=  1.405e-07 meter   
        lref=          0 meter          wref=          0 meter   
        lint=          0 meter          wint=          0 meter   
       lmult=          1               wmult=          1         
          ll=          0                 lln=          1         
          lw=          0                 lwn=          1         
         lwl=          0                  wl=          0         
         wln=          1                  ww=          0         
         wwn=          1                 wwl=          0         
         dwg=          0 m/V             dwb=          0 m/V^1/2 
          xl=          0                  xw=          0         
          a0=     1.6572                 ags=    0.01944 V^-1    
          b0=          0 meter            b1=          0 meter   
        keta=   0.032965 V^-1           voff=   -0.17082 V       
       ngate=      1e+23 cm^-3           vbx=          0 V       
         vbm=         -3 V                xt=   1.55e-07 meter   
        vth0=  -0.878406 V               nch=7.91926e+17 cm^-3   
        nsub=      6e+16 cm^-3           nlx=          0 meter   
      gamma1=          0 V^-1/2       gamma2=          0 V^-1/2  
          k1=    0.48313 V^1/2            k2=  -0.086211         
          k3=          0                 k3b=          0 V^-1    
          w0=      1e-10 meter          dvt0=          0         
        dvt1=      1e-10                dvt2=          0 V^-1    
       dvt0w=          0 meter^-1      dvt1w=      10001 meter^-1
       dvt2w=          0 V^-1           dsub=      1e-10         
        eta0=      0.001                etab=          0 V^-1    
          u0= 0.00341192 m^2/V/sec         ua=-1.5724e-09 m/V     
          ub= 1.0206e-18 (m/V)^2          uc=-2.1234e-11 V^-1    
        vsat=     100410 m/sec            a1=          0 v^-1    
          a2=        0.4               delta=   0.071729 V       
        rdsw=    659.884 ohm-um         prwg=          0 V^-1    
        prwb=          0 V^-1/2           wr=          1         
        pclm=     2.4129             pdiblc1=          0         
     pdiblc2=  0.0238053             pdiblcb=       -0.5 V^-1    
      pscbe1= 7.0054e+08 V/m          pscbe2=      1e-20 V/m     
       drout=      1e-10                pvag=          0         
     nfactor=          2                cdsc=          0 f/m^2   
       cdscb=     0.0005 f/V/m^2       cdscd=          0 f/V/m^2 
         cit=     -0.002 f/m^2        alpha0= 1.3735e-06 m/V     
       beta0=     23.765 V               dlc=   5.67e-09 meter   
         dwc=          0 meter           clc=      1e-07 meter   
         cle=        0.6                cgso=1.34038e-10 f/m     
        cgdo=1.34038e-10 f/m            cgbo=          0 f/m     
        cgsl=9.54827e-12 f/m            cgdl=9.54827e-12 f/m     
      ckappa=        0.6                  cf=    1.2e-11 f/m     
        acde=      0.401 m/V            moin=      18.13 V^1/2   
        toxm=  4.214e-09 m            dtoxcv=          0 m       
         vfb=  -0.387269 V            alpha1=          0 1/V     
        ijth=        0.1 A              noff=        3.9         
      voffcv=   -0.10701                 tcj=  0.0012407 1/K     
       tcjsw= 0.00037357 1/K          tcjswg=      2e-12 1/K     
         tpb=  0.0020386 V/K           tpbsw=   0.001246 V/K     
      tpbswg=          0 V/K             llc=          0         
         lwc=          0                lwlc=          0         
         wlc=          0                 wwc=          0         
        wwlc=          0                tnom=     303.15 K       
         kt1=   -0.50219 V              kt1l=          0         
         kt2=  -0.048934                 ute=       -0.8         
         ua1=-4.1272e-11 m/V             ub1= 4.0968e-19 (m/V)^2 
         uc1= 1.2689e-11 m/V^2            at=     3000.3 m/s     
         prt=    0.49191         
         using Berkeley noise model       noiMod=          1         
        noia=    9.9e+18                noib=       2400         
        noic=    1.4e-12                  em=    4.1e+07         
          ef=          1                  af=          1         
          kf=          0              gdsnoi=-1.23457e-29         
         using Berkeley diodes          not using ACM  
         acm=        12                 hdif=         0 meter    
        ldif=         0 meter             js=2.1483e-05 amp/m^2  
         jsw=  8.04e-10 amp/m            xti=       5.2          
          nj=    1.3632                   cj=0.000738019 f/m^2    
          mj=   0.34629                   pb=    0.6587 V        
        cjsw=9.88889e-11 f/m             mjsw=   0.29781          
         php (not used)                  pbsw=    0.7418 V        
      cjgate (not used)                 cjswg=2.3894e-10 f/m      
       mjswg=    0.9274                pbswg=    1.4338 V        
 

 Warning: Pd = 0 is less than Weff = 1.4e-07 in BSIM3 model 0:npass.0 element m_1 with W = 1.4e-07, L = 1.5e-07

  **warning** (10T-toyR.sp:40) Unable to find referenced node rbl; Output variable ignored. Specify a valid node.
  

  **warning** the following singular supplies were terminated to 1 meg resistor 
          supply       node1            node2
(10T-toyR.sp:12)vvdd                    0:vdd              defined in subckt 0                     0:0                defined in subckt 0               
             
 Warning:'1 connection nodes' occurs 4 times
 Summary of 1 connection from the following nodes:
 -----------------------
 |Node      |Subckt    |
 |----------+----------|
 |rbl0      |0         |
 |rbl1      |0         |
 |wbl       |0         |
 |wblb      |0         |
 -----------------------
              
      
 *****************************************************************
 ******  option summary
 ******
 runlvl  = 3         bypass  = 2.0000    
  Opening plot unit= 15
 file=10T-toyR.pa0

 **info** dc convergence successful at Newton-Raphson method 
 ******  
 *

 ****** operating point information tnom=  25.000 temp=  25.000 ******
 ****** operating point status is all       simulation time is     0.     
    node    =voltage      node    =voltage      node    =voltage

 +0:rbl0    = 3.504e-20 0:rbl1    =-8.717e-22 0:rwl0    =   0.     
 +0:rwl1    =   0.      0:vdd     =   1.8000  0:wbl     = 5.384e-21
 +0:wblb    = 2.168e-21 0:wwl     =   0.      1:net_1   = 5.145e-21
 +1:net_2   = 9.683e-21 1:net_3   =-1.391e-22 1:net_4   = 2.072e-21
 +2:vdd     = 2.073e-21 3:vdd     = 5.145e-21


 maximum nodal capacitance=   5.393E-16         on node     1:net_1           

    nodal  capacitance table 

    node    =    cap      node    =    cap      node    =    cap

 +0:rbl0    =  68.1528a 0:rbl1    =  66.0937a 0:rwl0    = 187.5569a
 +0:rwl1    = 187.5569a 0:vdd     =   0.      0:wbl     =  48.8671a
 +0:wblb    =  48.8671a 0:wwl     = 251.0909a 1:net_1   = 539.3013a
 +1:net_2   = 114.9608a 1:net_3   = 111.4019a 1:net_4   = 539.3013a
 +2:vdd     =  70.0809a 3:vdd     =  70.0809a

 

 **** voltage sources

 subckt                                              
 element  0:vin1     0:vin2     0:vin3     0:vvdd    
  volts      0.         0.         0.         1.8000 
  current    0.         0.         0.        -1.8000u
  power      0.         0.         0.         3.2400u

     total voltage source power dissipation=    3.2400u       watts




 **** mosfets


 subckt   x1         x1         x1         x1         x1         x1        
 element  1:m_1      1:m_2      1:m_3      1:m_4      1:m_5      1:m_6     
 model    0:npass.0  0:npass.0  0:npd.0    0:npass.0  0:npd.0    0:npass.0 
 region   Cutoff     Cutoff     Cutoff     Cutoff     Cutoff     Cutoff    
  id         0.         0.         0.         0.         0.         0.     
  ibs        0.         0.         0.         0.         0.         0.     
  ibd        0.         0.         0.         0.         0.         0.     
  vgs     -5.384e-21 -2.072e-21 -3.504e-20 -4.538e-21  1.391e-22  2.072e-21
  vds     -2.390e-22  9.562e-23 -2.536e-20 -9.683e-21 -7.327e-22 -1.391e-22
  vbs     -5.384e-21 -2.072e-21 -3.504e-20 -9.683e-21  1.391e-22    0.     
  vth      681.6529m  681.6529m  743.9195m  681.6529m  743.9195m  681.6529m
  vdsat     43.1954m   43.1954m   49.0031m   43.1954m   49.0031m   43.1954m
  vod     -681.6529m -681.6529m -743.9195m -681.6529m -743.9195m -681.6529m
  beta     186.4353u  186.4353u  351.0012u  186.4353u  351.0012u  186.4353u
  gam eff  777.3202m  777.3202m  704.6953m  777.3202m  704.6953m  777.3202m
  gm         0.         0.         0.         0.         0.         0.     
  gds        7.3617p    7.3617p  128.4175f    7.3617p  128.4175f    7.3617p
  gmb        0.         0.         0.         0.         0.         0.     
  cdtot     43.2491a   48.8671a   66.0937a   43.2491a   66.0937a   43.2491a
  cgtot    125.5455a  125.5455a  187.5569a  125.5455a  187.5569a  125.5455a
  cstot     48.8671a   43.2491a   68.1528a   48.8671a   68.1528a   48.8671a
  cbtot     36.3693a   36.3693a   54.4889a   36.3693a   54.4889a   36.3693a
  cgs       47.3766a   42.3669a   67.7877a   47.3766a   67.7877a   47.3766a
  cgd       42.3669a   47.3766a   65.4945a   42.3669a   65.4945a   42.3669a



 subckt   x1.xinvm   x1.xinvm   x1.xinv    x1.xinv   
 element  2:m_1      2:m_2      3:m_1      3:m_2     
 model    0:ppu.0    0:npd.0    0:ppu.0    0:npd.0   
 region   Cutoff     Cutoff     Cutoff     Cutoff    
  id         0.         0.         0.         0.     
  ibs        0.         0.         0.         0.     
  ibd        0.         0.         0.         0.     
  vgs      3.072e-21  5.145e-21 -3.073e-21  2.072e-21
  vds     -1.801e-25  2.072e-21    0.       5.145e-21
  vbs        0.         0.         0.         0.     
  vth     -886.6886m  743.9195m -886.6886m  743.9195m
  vdsat    -41.1152m   49.0031m  -41.1152m   49.0031m
  vod      886.6886m -743.9195m  886.6886m -743.9195m
  beta      51.0387u  351.0012u   51.0387u  351.0012u
  gam eff  648.3374m  704.6953m  648.3374m  704.6953m
  gm         0.         0.         0.         0.     
  gds      402.1664a  128.4175f  402.1664a  128.4175f
  gmb        0.         0.         0.         0.     
  cdtot     22.7082a   68.1528a   22.7082a   68.1528a
  cgtot     92.0889a  187.5569a   92.0889a  187.5569a
  cstot     21.4231a   66.0937a   21.4231a   66.0937a
  cbtot     48.6577a   54.4889a   48.6577a   54.4889a
  cgs       21.3219a   65.4945a   21.3219a   65.4945a
  cgd       22.3514a   67.7877a   22.3514a   67.7877a



 ******
 *

 ****** transient analysis tnom=  25.000 temp=  25.000 ******
x

 time         voltage    voltage     voltage     voltage   
             wwl        rbl0        rbl1        rwl0       
    0.          0.       3.5039e-20 -8.7174e-22    0.      
    1.00000n    1.8000   -47.8076u   -47.4507u     0.      
    2.00000n    1.8000   -85.4491u   -85.0834u     0.      
    3.00000n    1.8000   -82.7081u   -82.3418u     0.      
    4.00000n    1.8000   -78.3631u   -77.9967u     0.      
    5.00000n    1.8000   -77.2449u   -76.8782u     0.      
    6.00000n    1.8000   -76.1268u   -75.7597u     0.      
    7.00000n    1.8000   -74.8556u   -74.4884u     0.      
    8.00000n    1.8000   -73.5804u   -73.2131u     0.      
    9.00000n    1.8000   -72.3051u   -71.9377u     0.      
   10.00000n    1.8000   -71.7541u   -71.3865u     0.      
   11.00000n    1.8000   -71.4372u   -71.0695u     0.      
   12.00000n    1.8000   -71.1203u   -70.7525u     0.      
   13.00000n    1.8000   -70.8035u   -70.4355u     0.      
   14.00000n    1.8000   -70.4866u   -70.1186u     0.      
   15.00000n    1.8000   -70.2236u   -69.8553u     0.      
   16.00000n  720.0000m    2.6863m     2.6867m     0.      
   17.00000n    0.         5.5513m     5.5516m     0.      
   18.00000n    0.         3.4786m     3.4790m     0.      
   19.00000n    0.         1.5114m     1.5118m     0.      
   20.00000n    0.      -383.1373u  -382.7826u     0.      
   21.00000n    0.        -1.9595m    -1.9592m     0.      
   22.00000n    0.        -3.5317m    -3.5314m     0.      
   23.00000n    0.        -4.9230m    -4.9227m     0.      
   24.00000n    0.        -6.1502m    -6.1499m     0.      
   25.00000n    0.        -7.3773m    -7.3771m     0.      
   26.00000n    0.        -8.6045m    -8.6043m     0.      
   27.00000n    0.        -9.6712m    -9.6710m     0.      
   28.00000n    0.       -10.6230m   -10.6228m     0.      
   29.00000n    0.       -11.5748m   -11.5747m     0.      
   30.00000n    0.       -12.5266m   -12.5265m     0.      
   31.00000n    1.8000   -17.8657m   -17.8656m     0.      
   32.00000n    1.8000   -17.8427m   -17.8426m     0.      
   33.00000n    1.8000   -17.8332m   -17.8331m     0.      
   34.00000n    1.8000   -17.8260m   -17.8259m     0.      
   35.00000n    1.8000   -17.8271m   -17.8270m     0.      
   36.00000n    1.8000   -17.8282m   -17.8281m     0.      
   37.00000n    1.8000   -17.8316m   -17.8315m     0.      
   38.00000n    1.8000   -17.8364m   -17.8363m     0.      
   39.00000n    1.8000   -17.8413m   -17.8412m     0.      
   40.00000n    1.8000   -17.8462m   -17.8461m     0.      
   41.00000n    1.8000   -17.8475m   -17.8474m     0.      
   42.00000n    1.8000   -17.8473m   -17.8472m     0.      
   43.00000n    1.8000   -17.8472m   -17.8471m     0.      
   44.00000n    1.8000   -17.8470m   -17.8469m     0.      
   45.00000n    1.8000   -17.8468m   -17.8467m     0.      
y
x

 time         voltage   
             rwl1       
    0.          0.      
    1.00000n    0.      
    2.00000n    0.      
    3.00000n    0.      
    4.00000n    0.      
    5.00000n    0.      
    6.00000n    0.      
    7.00000n    0.      
    8.00000n    0.      
    9.00000n    0.      
   10.00000n    0.      
   11.00000n    0.      
   12.00000n    0.      
   13.00000n    0.      
   14.00000n    0.      
   15.00000n    0.      
   16.00000n    0.      
   17.00000n    0.      
   18.00000n    0.      
   19.00000n    0.      
   20.00000n    0.      
   21.00000n    0.      
   22.00000n    0.      
   23.00000n    0.      
   24.00000n    0.      
   25.00000n    0.      
   26.00000n    0.      
   27.00000n    0.      
   28.00000n    0.      
   29.00000n    0.      
   30.00000n    0.      
   31.00000n    0.      
   32.00000n    0.      
   33.00000n    0.      
   34.00000n    0.      
   35.00000n    0.      
   36.00000n    0.      
   37.00000n    0.      
   38.00000n    0.      
   39.00000n    0.      
   40.00000n    0.      
   41.00000n    0.      
   42.00000n    0.      
   43.00000n    0.      
   44.00000n    0.      
   45.00000n    0.      
y

          ***** job concluded
 ******  
 *

 ****** job statistics summary tnom=  25.000 temp=  25.000 ******
  
 ******  Machine Information  ******
 CPU:
 model name	: Intel(R) Xeon(R) CPU E5-4617 0 @ 2.90GHz
 cpu MHz	: 2900.000
 CPU(s)		: 12
  
 OS:
 Linux version 3.10.0-1160.42.2.el7.x86_64 (mockbuild@x86-vm-40.build.eng.bos.redhat.com) (gcc version 4.8.5 20150623 (Red Hat 4.8.5-44) (GCC) ) #1 SMP Tue Aug 31 20:15:00 UTC 2021

 System loadavg : 1.00 1.18 1.24 2/3356 120233


  ******  HSPICE Threads Information  ******

  Command Line Threads Count :     1
  Available CPU Count        :    12
  Actual Threads Count       :     1


  ****** Statistics of Ignored Elements ******
  Voltage Sources :       1

  ******  Circuit Statistics  ******
  # nodes       =      15 # elements   =      15
  # resistors   =       1 # capacitors =       0 # inductors   =       0
  # mutual_inds =       0 # vccs       =       0 # vcvs        =       0
  # cccs        =       0 # ccvs       =       0 # volt_srcs   =       4
  # curr_srcs   =       0 # diodes     =       0 # bjts        =       0
  # jfets       =       0 # mosfets    =      10 # U elements  =       0
  # T elements  =       0 # W elements =       0 # B elements  =       0
  # S elements  =       0 # P elements =       0 # va device   =       0
  # vector_srcs =       0 # N elements =       0


  ******  Runtime Statistics (seconds)  ******

  analysis           time    # points   tot. iter  conv.iter
  op point           0.01           1          25
  transient          0.01          46         157          50 rev=         4
  readin             0.25
  errchk             0.01
  setup              0.01
  output             0.00


           peak memory used        633.88 megabytes
           total cpu time            0.29 seconds
           total elapsed time        0.35 seconds
           job started at     11:22:10 11/19/2021
           job ended   at     11:22:11 11/19/2021

>info:         ***** hspice job concluded
           job total runtime         0.35 seconds


 lic: Release hspice token(s) 
 lic: total license checkout elapse time:        0.05(s)
