Using: /programs/synopsys/hspice/current/hspice/linux64/hspice 10T-toyR.sp
 ****** PrimeSim HSPICE -- R-2020.12-SP1 linux64 (Apr 10 2021 6983340) ******
  Copyright (c) 1986 - 2021 by Synopsys, Inc. All Rights Reserved.
  This software and the associated documentation are proprietary
  to Synopsys, Inc. This software may only be used in accordance
  with the terms and conditions of a written license agreement with
  Synopsys, Inc. All other use, reproduction, or distribution of
  this software is strictly prohibited.
  Input File: 10T-toyR.sp                                                       
  Command line options: /programs/synopsys/hspice/current/hspice/linux64/hspice 10T-toyR.sp
  Start time: Fri Nov 19 08:43:05 2021
 lic:  
 lic: FLEXlm: SDK_12.9.5 
 lic: USER:   jstine               HOSTNAME: rivendell.ecen.okstate.edu 
 lic: HOSTID: "2c44fd862b18"       PID:      385 
 lic: Using FLEXlm license file: 
 lic: 27020@trelaina.ecen.okstate.edu 
 lic: Checkout 1 hspice 
 lic: License/Maintenance for hspice will expire on 27-jan-2022/2020.12 
 lic: 1(in_use)/50(total) FLOATING license(s) on SERVER 27020@trelaina.ecen.okstate.edu 
 lic:   
1****** PrimeSim HSPICE -- R-2020.12-SP1 linux64 (Apr 10 2021 6983340) ******
 ******  
 .include '/home/tdene/public/skywater-src-nda/s8_spice_models/models.all'

 ****** circuit name directory
 circuit number to circuit name directory
   number circuitname                     definition         multiplier
        0 main circuit
        1 x1.                             mem10t-toy         1.00 
        2 x1.xinvm.                       invm               1.00 
        3 x1.xinv.                        invm               1.00 
  **warning** (10T-toyR.sp:6) Both nodes of element vgnd are connected together; Line ignored.
  **info** (10T-toyR.sp:25) DC voltage reset to initial transient source value in source 0:vin1. new dc=0.0000D+00
 Model file: /home/tdene/Public/skywater-src-nda/s8_spice_models/nshort.pm3
 Model line:        16340
 Model Name: nshort.54  
 BSIM4 Model (Level 54)
    MOBMOD = 0
    BINUNIT = 2
    PARAMCHK = 1
    CAPMOD = 2
    DIOMOD = 1
    RDSMOD = 0
    TRNQSMOD = 0
    ACNQSMOD = 0
    RBODYMOD = 1
    RGATEMOD = 0
    PERMOD = 1
    GEOMOD = 0
    RGEOMOD = 0
    FNOIMOD = 1
    TNOIMOD = 1
    IGCMOD = 0
    IGBMOD = 0
    STIMOD = 1
    VBFWDMOD = 0
    VERSION =    4.5 
    TOXREF = 4.148e-09 
    TOXE = 4.148e-09 
    TOXP = 4.148e-09 
    TOXM = 4.148e-09 
    DTOX =      0 
    EPSROX =    3.9 
    CDSC =      0 
    CDSCB =      0 
    CDSCD = 0.002052 
    CIT =      0 
    NFACTOR =  2.594 
    XJ = 1.5e-07 
    VSAT = 1.886e+05 
    A0 =    1.5 
    AGS =   1.25 
    A1 =      0 
    A2 = 0.4239 
    AT = 5.372e+04 
    KETA = -0.03892 
    NSUB =  6e+16 
    NDEP = 1.7e+17 
    NSD =  1e+20 
    NGATE =  1e+23 
    GAMMA1 =      0 
    GAMMA2 =      0 
    VBX =      0 
    VBM =     -3 
    XT = 1.55e-07 
    K1 = 0.9071 
    KT1 = -0.241 
    KT1L =      0 
    KT2 = -0.02888 
    K2 = -0.1344 
    K3 =      2 
    K3B =   0.54 
    LPE0 = 1.033e-07 
    LPEB = -7.082e-08 
    DVTP0 =      0 
    DVTP1 =      0 
    W0 =      0 
    DVT0 =      0 
    DVT1 =   0.53 
    DVT2 = -0.032 
    DVT0W =  -3.58 
    DVT1W = 1.671e+06 
    DVT2W =  0.068 
    DROUT = 0.5033 
    DSUB = 0.4887 
    VTH0 = 0.4188 
    EU =   1.67 
    UA = -1.18e-09 
    UA1 = -2.385e-11 
    UB = 2.341e-18 
    UB1 = 7.078e-19 
    UC = 8.399e-11 
    UC1 = 1.472e-10 
    U0 = 0.0294 
    UTE = -1.248 
    VOFF = -0.2075 
    VOFFL = 5.82e-09 
    MINV =      0 
    FPROUT =      0 
    PDITS =      0 
    PDITSD =      0 
    PDITSL =      0 
    DELTA =   0.01 
    RDSW =  65.97 
    RDSWMIN =      0 
    RDWMIN =      0 
    RSWMIN =      0 
    RDW =      0 
    RSW =      0 
    PRWG = 0.02151 
    PRWB =      0 
    PRT =      0 
    ETA0 = 0.0005676 
    ETAB = -0.044 
    PCLM = 0.1598 
    PDIBLC1 =  0.357 
    PDIBLC2 = 0.008406 
    PDIBLCB = -0.1033 
    PSCBE1 = 7.914e+08 
    PSCBE2 =  1e-12 
    PVAG =      0 
    WR =      1 
    DWG =      0 
    DWB =      0 
    XW =      0 
    XWREF =      0 
    XL =      0 
    XLREF =      0 
    B0 =      0 
    B1 =      0 
    ALPHA0 =  3e-08 
    ALPHA1 =   0.85 
    AGIDL =      0 
    BGIDL = 2.3e+09 
    CGIDL =    0.5 
    PHIN =      0 
    EGIDL =    0.8 
    AIGC =   0.43 
    BIGC =  0.054 
    CIGC =  0.075 
    AIGSD =   0.43 
    BIGSD =  0.054 
    CIGSD =  0.075 
    AIGBACC =      1 
    BIGBACC =      0 
    CIGBACC =      0 
    AIGBINV =   0.35 
    BIGBINV =   0.03 
    CIGBINV =  0.006 
    NIGC =      0 
    NIGBINV =      0 
    NIGBACC =      0 
    NTOX =      1 
    EIGBINV =    1.1 
    PIGCD =      1 
    POXEDGE =      1 
    XRCRG1 =     12 
    TNOIA = 1.5e+07 
    TNOIB = 9.9e+06 
    NTNOI =      1 
    XRCRG2 =      1 
    BETA0 =  13.85 
    IJTHDFWD =    0.1 
    IJTHSFWD =    0.1 
    IJTHDREV =    0.1 
    IJTHSREV =    0.1 
    XJBVD =      1 
    XJBVS =      1 
    BVD =   11.7 
    BVS =   11.7 
    VFB =     -1 
    GBMIN =  1e-12 
    RBDB =     50 
    RBPB =     50 
    RBSB =     50 
    RBPS =     50 
    RBPD =     50 
    CGSL =      0 
    CGDL =      0 
    CKAPPAS =    0.6 
    CKAPPAD =    0.6 
    CF = 1.407e-12 
    CLC =  1e-07 
    CLE =    0.6 
    DWC =      0 
    DLC = 1.193e-08 
    DLCIG =      0 
    DWJ =      0 
    VFBCV =     -1 
    ACDE =    0.4 
    MOIN =    6.9 
    NOFF =  3.404 
    VOFFCV = -0.1729 
    DMCG =      0 
    DMCI =      0 
    DMDG =      0 
    DMCGT =      0 
    XGW =      0 
    XGL =      0 
    RSHG =    0.1 
    NGCON =      1 
    TCJ = 0.000792 
    TPB = 0.001229 
    TCJSW =  1e-05 
    TPBSW =      0 
    TCJSWG =      0 
    TPBSWG =      0 
    SK0 =      0 
    SK1 =      0 
    SK2 =      0 
    SL =  2e-06 
    SW =  2e-06 
    K =      0 
    TNOM =  303.1 
    CGSO = 2.449e-10 
    CGDO = 2.449e-10 
    CGBO =  1e-13 
    XPART =      0 
    RSH =      1 
    JSS = 0.00275 
    JSWS =  6e-10 
    JSWGS =      0 
    PBS =  0.729 
    MJS =   0.44 
    PBSWS =    0.2 
    MJSWS = 0.0009 
    CJS = 0.00134 
    CJSWS = 3.674e-11 
    NJS =  1.293 
    PBSWGS = 0.9558 
    MJSWGS =    0.8 
    CJSWGS = 2.382e-10 
    XTIS =      2 
    JSD = 0.00275 
    JSWD =  6e-10 
    JSWGD =      0 
    PBD =  0.729 
    MJD =   0.44 
    PBSWD =    0.2 
    MJSWD = 0.0009 
    CJD = 0.00134 
    CJSWD = 3.674e-11 
    NJD =  1.293 
    PBSWGD = 0.9558 
    MJSWGD =    0.8 
    CJSWGD = 2.382e-10 
    XTID =      2 
    LMLT =      1 
    WMLT =      1 
    LINT = 1.193e-08 
    LL =      0 
    LLC =      0 
    LLN =      1 
    LW =      0 
    LWC =      0 
    LWN =      1 
    LWL =      0 
    LWLC =      0 
    LMIN = 1.49e-07 
    LMAX = 1.51e-07 
    WINT = 2.186e-08 
    WL =      0 
    WLC =      0 
    WLN =      1 
    WW =      0 
    WWC =      0 
    WWN =      1 
    WWL =      0 
    WWLC =      0 
    WMIN = 5.19e-07 
    WMAX = 5.21e-07 
    NOIA = 2.5e+42 
    NOIB =      0 
    NOIC =      0 
    EM = 4.1e+07 
    EF =   0.84 
    AF =      1 
    KF =      0 
    TRS =      0 
    TRD =      0 
    TEMPMOD  =      0 
    LAMBDA   =      0 
    VTL      =      0 m/s
    LC       =  5e-09 
    XN       =      3 
    LLAMBDA  =      0 
    LVTL     =      0 
    LXN      =      0 
    WLAMBDA  =      0 
    WVTL     =      0 
    WXN      =      0 
    PLAMBDA  =      0 
    PVTL     =      0 
    PXN      =      0 
    RNOIA    =   0.94 
    RNOIB    =   0.26 
    SAREF(SA0) = 1.04e-06 m
    SBREF(SB0) = 1.04e-06 m
    WLOD     =      0 m
    KU0      = -2.7e-08 1/m
    KVSAT    =    0.2 
    KVTH0    = 9.8e-09 m
    TKU0     =      0 
    LLODKU0  =      0 
    WLODKU0  =      1 
    LLODVTH  =      0 
    WLODVTH  =      1 
    LKU0     =      0 
    WKU0     =      0 
    PKU0     =      0 
    LKVTH0   =      0 
    WKVTH0   =  2e-07 
    PKVTH0   =      0 
    STK2     =      0 
    LODK2    =      1 
    STETA0   =      0 
    LODETA0  =      1 
    LXRCRG1  =      0 
    WXRCRG1  =      0 
    PXRCRG1  =      0 
    LXRCRG2  =      0 
    WXRCRG2  =      0 
    PXRCRG2  =      0 
     *** UCB's BSIM4.4.0 new diode model is activated. ***
    *** UCB's Diode Model Parameters ***
    JTSS         =      0 
    JTSSWS       =      0 
    JTSSWGS      =      0 
    JTSD         =      0 
    JTSSWD       =      0 
    JTSSWGD      =      0 
    NJTS         =     20 
    NJTSSW       =     20 
    NJTSSWG      =     20 
    XTSS         =   0.02 
    XTSSWS       =   0.02 
    XTSSWGS      =   0.02 
    XTSD         =   0.02 
    XTSSWD       =   0.02 
    XTSSWGD      =   0.02 
    TNJTS        =      0 
    TNJTSSW      =      0 
    TNJTSSWG     =      0 
    VFBSDOFF     =      0 
    LVFBSDOFF    =      0 
    WVFBSDOFF    =      0 
    PVFBSDOFF    =      0 
    LINTNOI      = -1e-07 
    VTSS         =     10 
    VTSD         =     10 
    VTSSWS       =     10 
    VTSSWD       =     10 
    VTSSWGS      =     10 
    VTSSWGD      =     10 
    TTDIOMOD     =      1 
     *** UCB's BSIM4.5.0 new model is activated. ***
    UD         =      0 
    UD1        =      0 
    UP         =      0 
    LP         =      1 
    TVOFF      =      0 
    TVFBSDOFF  =      0 
    RBPS0      =     50 
    RBPSL      =      0 
    RBPSW      =      0 
    RBPSNF     =      0 
    RBPD0      =     50 
    RBPDL      =      0 
    RBPDW      =      0 
    RBPDNF     =      0 
    RBPBX0     =    100 
    RBPBXL     =      0 
    RBPBXW     =      0 
    RBPBXNF    =      0 
    RBPBY0     =    100 
    RBPBYL     =      0 
    RBPBYW     =      0 
    RBPBYNF    =      0 
    RBSBX0     =    100 
    RBSBY0     =    100 
    RBDBX0     =    100 
    RBDBY0     =    100 
    RBSDBXL    =      0 
    RBSDBXW    =      0 
    RBSDBXNF   =      0 
    RBSDBYL    =      0 
    RBSDBYW    =      0 
    RBSDBYNF   =      0 
    LUD        =      0 
    LUD1       =      0 
    LUP        =      0 
    LLP        =      0 
    LTVOFF     =      0 
    LTVFBSDOFF =      0 
    WUD        =      0 
    WUD1       =      0 
    WUP        =      0 
    WLP        =      0 
    WTVOFF     =      0 
    WTVFBSDOFF =      0 
    PUD        =      0 
    PUD1       =      0 
    PUP        =      0 
    PLP        =      0 
    PTVOFF     =      0 
    PTVFBSDOFF =      0 
    WEB        =      0 
    WEC        =      0 
    KVTH0WE    =      0 
    K2WE       =      0 
    KU0WE      =      0 
    SCREF      =  1e-06 
    WPEMOD     =      0 
    LKVTH0WE   =      0 
    LK2WE      =      0 
    LKU0WE     =      0 
    WKVTH0WE   =      0 
    WK2WE      =      0 
    WKU0WE     =      0 
    PKVTH0WE   =      0 
    PK2WE      =      0 
    PKU0WE     =      0 
 Model file: /home/tdene/Public/skywater-src-nda/s8_spice_models/pshort.pm3
 Model line:           20
 Model Name: pshort.0  
 BSIM4 Model (Level 54)
    MOBMOD = 0
    BINUNIT = 2
    PARAMCHK = 1
    CAPMOD = 2
    DIOMOD = 1
    RDSMOD = 0
    TRNQSMOD = 0
    ACNQSMOD = 0
    RBODYMOD = 1
    RGATEMOD = 0
    PERMOD = 1
    GEOMOD = 0
    RGEOMOD = 0
    FNOIMOD = 1
    TNOIMOD = 1
    IGCMOD = 0
    IGBMOD = 0
    STIMOD = 1
    VBFWDMOD = 0
    VERSION =    4.5 
    TOXREF = 4.23e-09 
    TOXE = 4.23e-09 
    TOXP = 4.23e-09 
    TOXM = 4.23e-09 
    DTOX =      0 
    EPSROX =    3.9 
    CDSC = 0.00013 
    CDSCB = 0.00078 
    CDSCD =      0 
    CIT =  1e-05 
    NFACTOR =  2.561 
    XJ = 1.5e-07 
    VSAT = 8.504e+04 
    A0 = 0.9129 
    AGS =   1.25 
    A1 =      0 
    A2 = 0.8737 
    AT = 5.094e+04 
    KETA = -0.02046 
    NSUB =  6e+16 
    NDEP = 1.7e+17 
    NSD =  1e+20 
    NGATE =  1e+23 
    GAMMA1 =      0 
    GAMMA2 =      0 
    VBX =      0 
    VBM =     -3 
    XT = 1.55e-07 
    K1 =  1.315 
    KT1 = -0.7098 
    KT1L =      0 
    KT2 =  -0.12 
    K2 = -0.2974 
    K3 = -15.85 
    K3B =      2 
    LPE0 =      0 
    LPEB =      0 
    DVTP0 =      0 
    DVTP1 =      0 
    W0 =      0 
    DVT0 =  4.495 
    DVT1 =  0.294 
    DVT2 =  0.015 
    DVT0W = -4.977 
    DVT1W = 1.147e+06 
    DVT2W = -0.00896 
    DROUT =      1 
    DSUB =   0.26 
    VTH0 = -1.029 
    EU =   1.67 
    UA = -2.453e-09 
    UA1 = 1.83e-10 
    UB = 2.308e-18 
    UB1 = 3.689e-19 
    UC = 1.613e-13 
    UC1 = 6.448e-12 
    U0 = 0.002903 
    UTE = -0.2124 
    VOFF = -0.3667 
    VOFFL =      0 
    MINV =      0 
    FPROUT =      0 
    PDITS =      0 
    PDITSD =      0 
    PDITSL =      0 
    DELTA =   0.01 
    RDSW =  547.9 
    RDSWMIN =      0 
    RDWMIN =      0 
    RSWMIN =      0 
    RDW =      0 
    RSW =      0 
    PRWG = 0.1376 
    PRWB = -0.3235 
    PRT =      0 
    ETA0 = 0.2106 
    ETAB = -0.01473 
    PCLM = 0.6163 
    PDIBLC1 = 0.1422 
    PDIBLC2 = 0.002651 
    PDIBLCB = -0.1519 
    PSCBE1 =  8e+08 
    PSCBE2 = 9.179e-09 
    PVAG =      0 
    WR =      1 
    DWG = -5.722e-09 
    DWB = -1.786e-08 
    XW =      0 
    XWREF =      0 
    XL =      0 
    XLREF =      0 
    B0 =      0 
    B1 =      0 
    ALPHA0 =  1e-10 
    ALPHA1 =  1e-10 
    AGIDL = 4.008e-10 
    BGIDL =  1e+09 
    CGIDL =    300 
    PHIN =      0 
    EGIDL =    0.1 
    AIGC =   0.43 
    BIGC =  0.054 
    CIGC =  0.075 
    AIGSD =   0.43 
    BIGSD =  0.054 
    CIGSD =  0.075 
    AIGBACC =   0.43 
    BIGBACC =  0.054 
    CIGBACC =  0.075 
    AIGBINV =   0.35 
    BIGBINV =   0.03 
    CIGBINV =  0.006 
    NIGC =      1 
    NIGBINV =      3 
    NIGBACC =      1 
    NTOX =      1 
    EIGBINV =    1.1 
    PIGCD =      1 
    POXEDGE =      1 
    XRCRG1 =     12 
    TNOIA = 2.5e+07 
    TNOIB =      0 
    NTNOI =      1 
    XRCRG2 =      1 
    BETA0 =  7.938 
    IJTHDFWD =    0.1 
    IJTHSFWD =    0.1 
    IJTHDREV =    0.1 
    IJTHSREV =    0.1 
    XJBVD =      1 
    XJBVS =      1 
    BVD =  12.69 
    BVS =  12.69 
    VFB =     -1 
    GBMIN =  1e-12 
    RBDB =     50 
    RBPB =     50 
    RBSB =     50 
    RBPS =     50 
    RBPD =     50 
    CGSL = 9.548e-12 
    CGDL = 9.548e-12 
    CKAPPAS =    0.6 
    CKAPPAD =    0.6 
    CF = 1.2e-11 
    CLC =  1e-07 
    CLE =    0.6 
    DWC =      0 
    DLC = -1.399e-08 
    DLCIG =      0 
    DWJ =      0 
    VFBCV = -0.1447 
    ACDE =    0.8 
    MOIN =  18.13 
    NOFF =    3.9 
    VOFFCV = -0.107 
    DMCG =      0 
    DMCI =      0 
    DMDG =      0 
    DMCGT =      0 
    XGW =      0 
    XGL =      0 
    RSHG =    0.1 
    NGCON =      1 
    TCJ = 0.001241 
    TPB = 0.002039 
    TCJSW = 0.0003736 
    TPBSW = 0.001246 
    TCJSWG =  2e-12 
    TPBSWG =      0 
    SK0 =      0 
    SK1 =      0 
    SK2 =      0 
    SL =  2e-06 
    SW =  2e-06 
    K =      0 
    TNOM =  303.1 
    CGSO = 5.249e-11 
    CGDO = 5.249e-11 
    CGBO =      0 
    XPART =      0 
    RSH =      1 
    JSS = 2.148e-05 
    JSWS = 8.04e-10 
    JSWGS =      0 
    PBS = 0.6587 
    MJS = 0.3463 
    PBSWS = 0.7418 
    MJSWS = 0.2978 
    CJS = 0.000738 
    CJSWS = 9.889e-11 
    NJS =  1.363 
    PBSWGS =  1.434 
    MJSWGS = 0.9274 
    CJSWGS = 2.392e-10 
    XTIS =    5.2 
    JSD = 2.148e-05 
    JSWD = 8.04e-10 
    JSWGD =      0 
    PBD = 0.6587 
    MJD = 0.3463 
    PBSWD = 0.7418 
    MJSWD = 0.2978 
    CJD = 0.000738 
    CJSWD = 9.889e-11 
    NJD =  1.363 
    PBSWGD =  1.434 
    MJSWGD = 0.9274 
    CJSWGD = 2.392e-10 
    XTID =    5.2 
    LMLT =      1 
    WMLT =      1 
    LINT = -1.399e-08 
    LL =      0 
    LLC =      0 
    LLN =      1 
    LW =      0 
    LWC =      0 
    LWN =      1 
    LWL =      0 
    LWLC =      0 
    LMIN = 1.45e-07 
    LMAX = 1.55e-07 
    WINT = 7.304e-09 
    WL =      0 
    WLC =      0 
    WLN =      1 
    WW =      0 
    WWC =      0 
    WWN =      1 
    WWL =      0 
    WWLC =      0 
    WMIN = 1.255e-06 
    WMAX = 1.265e-06 
    NOIA = 1.5e+42 
    NOIB =      0 
    NOIC =      0 
    EM = 4.1e+07 
    EF =      1 
    AF =      1 
    KF =      0 
    TRS =      0 
    TRD =      0 
    TEMPMOD  =      0 
    LAMBDA   =      0 
    VTL      =      0 m/s
    LC       =  5e-09 
    XN       =      3 
    LLAMBDA  =      0 
    LVTL     =      0 
    LXN      =      0 
    WLAMBDA  =      0 
    WVTL     =      0 
    WXN      =      0 
    PLAMBDA  =      0 
    PVTL     =      0 
    PXN      =      0 
    RNOIA    =   0.69 
    RNOIB    =   0.34 
    SAREF(SA0) = 1.04e-06 m
    SBREF(SB0) = 1.04e-06 m
    WLOD     =      0 m
    KU0      = 4.5e-08 1/m
    KVSAT    =    0.5 
    KVTH0    = 3.29e-08 m
    TKU0     =      0 
    LLODKU0  =      0 
    WLODKU0  =      1 
    LLODVTH  =      0 
    WLODVTH  =      1 
    LKU0     =      0 
    WKU0     = 2.5e-07 
    PKU0     =      0 
    LKVTH0   =      0 
    WKVTH0   =  2e-07 
    PKVTH0   =      0 
    STK2     =      0 
    LODK2    =      1 
    STETA0   =      0 
    LODETA0  =      1 
    LXRCRG1  =      0 
    WXRCRG1  =      0 
    PXRCRG1  =      0 
    LXRCRG2  =      0 
    WXRCRG2  =      0 
    PXRCRG2  =      0 
     *** UCB's BSIM4.4.0 new diode model is activated. ***
    *** UCB's Diode Model Parameters ***
    JTSS         =      0 
    JTSSWS       =      0 
    JTSSWGS      =      0 
    JTSD         =      0 
    JTSSWD       =      0 
    JTSSWGD      =      0 
    NJTS         =     20 
    NJTSSW       =     20 
    NJTSSWG      =     20 
    XTSS         =   0.02 
    XTSSWS       =   0.02 
    XTSSWGS      =   0.02 
    XTSD         =   0.02 
    XTSSWD       =   0.02 
    XTSSWGD      =   0.02 
    TNJTS        =      0 
    TNJTSSW      =      0 
    TNJTSSWG     =      0 
    VFBSDOFF     =      0 
    LVFBSDOFF    =      0 
    WVFBSDOFF    =      0 
    PVFBSDOFF    =      0 
    LINTNOI      = -2e-07 
    VTSS         =     10 
    VTSD         =     10 
    VTSSWS       =     10 
    VTSSWD       =     10 
    VTSSWGS      =     10 
    VTSSWGD      =     10 
    TTDIOMOD     =      1 
     *** UCB's BSIM4.5.0 new model is activated. ***
    UD         =      0 
    UD1        =      0 
    UP         =      0 
    LP         =      1 
    TVOFF      =      0 
    TVFBSDOFF  =      0 
    RBPS0      =     50 
    RBPSL      =      0 
    RBPSW      =      0 
    RBPSNF     =      0 
    RBPD0      =     50 
    RBPDL      =      0 
    RBPDW      =      0 
    RBPDNF     =      0 
    RBPBX0     =    100 
    RBPBXL     =      0 
    RBPBXW     =      0 
    RBPBXNF    =      0 
    RBPBY0     =    100 
    RBPBYL     =      0 
    RBPBYW     =      0 
    RBPBYNF    =      0 
    RBSBX0     =    100 
    RBSBY0     =    100 
    RBDBX0     =    100 
    RBDBY0     =    100 
    RBSDBXL    =      0 
    RBSDBXW    =      0 
    RBSDBXNF   =      0 
    RBSDBYL    =      0 
    RBSDBYW    =      0 
    RBSDBYNF   =      0 
    LUD        =      0 
    LUD1       =      0 
    LUP        =      0 
    LLP        =      0 
    LTVOFF     =      0 
    LTVFBSDOFF =      0 
    WUD        =      0 
    WUD1       =      0 
    WUP        =      0 
    WLP        =      0 
    WTVOFF     =      0 
    WTVFBSDOFF =      0 
    PUD        =      0 
    PUD1       =      0 
    PUP        =      0 
    PLP        =      0 
    PTVOFF     =      0 
    PTVFBSDOFF =      0 
    WEB        =      0 
    WEC        =      0 
    KVTH0WE    =      0 
    K2WE       =      0 
    KU0WE      =      0 
    SCREF      =  1e-06 
    WPEMOD     =      0 
    LKVTH0WE   =      0 
    LK2WE      =      0 
    LKU0WE     =      0 
    WKVTH0WE   =      0 
    WK2WE      =      0 
    WKU0WE     =      0 
    PKVTH0WE   =      0 
    PK2WE      =      0 
    PKU0WE     =      0 
  **warning** (10T-toyR.sp:32) Unable to find referenced node rbl; Output variable ignored. Specify a valid node.
  

  **warning** the following singular supplies were terminated to 1 meg resistor 
          supply       node1            node2
(10T-toyR.sp:5)vvdd                    0:vdd              defined in subckt 0                     0:0                defined in subckt 0               
             
 Warning:'1 connection nodes' occurs 4 times
 Summary of 1 connection from the following nodes:
 -----------------------
 |Node      |Subckt    |
 |----------+----------|
 |rbl0      |0         |
 |rbl1      |0         |
 |wbl       |0         |
 |wblb      |0         |
 -----------------------
              
      
 *****************************************************************
 ******  option summary
 ******
 runlvl  = 3         bypass  = 2.0000    
  Opening plot unit= 15
 file=10T-toyR.pa0

 **info** dc convergence successful at Newton-Raphson method 
 ******  
 .include '/home/tdene/public/skywater-src-nda/s8_spice_models/models.all'

 ****** operating point information tnom=  25.000 temp=  25.000 ******
 ****** operating point status is all       simulation time is     0.     
    node    =voltage      node    =voltage      node    =voltage

 +0:rbl0    =   0.      0:rbl1    =   0.      0:rwl0    =   0.     
 +0:rwl1    =   0.      0:vdd     =   1.8000  0:wbl     =   0.     
 +0:wblb    =   0.      0:wwl     =   0.      1:net_1   =   0.     
 +1:net_2   =   0.      1:net_3   =   0.      1:net_4   =   0.     
 +2:vdd     =   0.      3:vdd     =   0.     


 maximum nodal capacitance=   2.947E-15         on node     1:net_1           

    nodal  capacitance table 

    node    =    cap      node    =    cap      node    =    cap

 +0:rbl0    = 269.5300a 0:rbl1    = 279.1805a 0:rwl0    = 448.6105a
 +0:rwl1    = 448.6105a 0:vdd     =   0.      0:wbl     = 269.5300a
 +0:wblb    = 279.1805a 0:wwl     = 897.2211a 1:net_1   =   2.9473f
 +1:net_2   = 548.7105a 1:net_3   = 548.7105a 1:net_4   =   2.9376f
 +2:vdd     =   2.1044f 3:vdd     =   2.1044f

 

 **** voltage sources

 subckt                                              
 element  0:vin1     0:vin2     0:vin3     0:vvdd    
  volts      0.         0.         0.         1.8000 
  current    0.         0.         0.        -1.8000u
  power      0.         0.         0.         3.2400u

     total voltage source power dissipation=    3.2400u       watts




 **** mosfets


 subckt   x1         x1         x1         x1         x1         x1        
 element  1:m_1      1:m_2      1:m_3      1:m_4      1:m_5      1:m_6     
 model    0:nshort.5 0:nshort.5 0:nshort.5 0:nshort.5 0:nshort.5 0:nshort.5
 region   Cutoff     Cutoff     Cutoff     Cutoff     Cutoff     Cutoff    
  id         0.         0.         0.         0.         0.         0.     
  ibs        0.         0.         0.         0.         0.         0.     
  ibd        0.         0.         0.         0.         0.         0.     
  vgs        0.         0.         0.         0.         0.         0.     
  vds        0.         0.         0.         0.         0.         0.     
  vbs        0.         0.         0.         0.         0.         0.     
  vth      752.4909m  752.4909m  752.4909m  752.4909m  752.4909m  752.4909m
  vdsat     42.9393m   42.9393m   42.9393m   42.9393m   42.9393m   42.9393m
  vod     -752.4909m -752.4909m -752.4909m -752.4909m -752.4909m -752.4909m
  beta       1.0308m    1.0308m    1.0308m    1.0308m    1.0308m    1.0308m
  gam eff  907.0735m  907.0735m  907.0735m  907.0735m  907.0735m  907.0735m
  gm         0.         0.         0.         0.         0.         0.     
  gds      274.2760f  274.2760f  274.2760f  274.2760f  274.2760f  274.2760f
  gmb        0.         0.         0.         0.         0.         0.     
  cdtot    279.1805a  279.1805a  279.1805a  279.1805a  279.1805a  279.1805a
  cgtot    448.6105a  448.6105a  448.6105a  448.6105a  448.6105a  448.6105a
  cstot    269.5300a  269.5300a  269.5300a  269.5300a  269.5300a  269.5300a
  cbtot    476.6484a  476.6484a  476.6484a  476.6484a  476.6484a  476.6484a
  cgs      125.2502a  125.2502a  125.2502a  125.2502a  125.2502a  125.2502a
  cgd      133.9521a  133.9521a  133.9521a  133.9521a  133.9521a  133.9521a



 subckt   x1.xinvm   x1.xinvm   x1.xinv    x1.xinv   
 element  2:m_1      2:m_2      3:m_1      3:m_2     
 model    0:pshort.0 0:nshort.5 0:pshort.0 0:nshort.5
 region   Cutoff     Cutoff     Cutoff     Cutoff    
  id         0.         0.         0.         0.     
  ibs        0.         0.         0.         0.     
  ibd        0.         0.         0.         0.     
  vgs        0.         0.         0.         0.     
  vds        0.         0.         0.         0.     
  vbs        0.         0.         0.         0.     
  vth     -753.2087m  752.4909m -753.2087m  752.4909m
  vdsat    -43.2735m   42.9393m  -43.2735m   42.9393m
  vod      753.2087m -752.4909m  753.2087m -752.4909m
  beta     385.4839u    1.0308m  385.4839u    1.0308m
  gam eff    1.3152   907.0735m    1.3152   907.0735m
  gm         0.         0.         0.         0.     
  gds       30.5595p  274.2760f   30.5595p  274.2760f
  gmb        0.         0.         0.         0.     
  cdtot    557.4249a  279.1805a  557.4249a  279.1805a
  cgtot    934.2707a  448.6105a  934.2707a  448.6105a
  cstot    510.0437a  269.5300a  510.0437a  269.5300a
  cbtot      1.5943f  476.6484a    1.5943f  476.6484a
  cgs       76.9363a  125.2502a   76.9363a  125.2502a
  cgd      121.3984a  133.9521a  121.3984a  133.9521a



 ******
 .include '/home/tdene/public/skywater-src-nda/s8_spice_models/models.all'

 ****** transient analysis tnom=  25.000 temp=  25.000 ******
x

 time         voltage    voltage    voltage    voltage   
             wwl        rbl0       rbl1       rwl0       
    0.          0.         0.         0.         0.      
    1.00000n    1.8000  -339.8251u -166.0392u    0.      
    2.00000n    1.8000  -340.1465u -166.1510u    0.      
    3.00000n    1.8000  -337.5234u -163.4731u    0.      
    4.00000n    1.8000  -334.4135u -160.3492u    0.      
    5.00000n    1.8000  -329.0217u -154.9194u    0.      
    6.00000n    1.8000  -321.5884u -147.4268u    0.      
    7.00000n    1.8000  -314.1551u -139.9341u    0.      
    8.00000n    1.8000  -305.2120u -130.9051u    0.      
    9.00000n    1.8000  -295.3248u -120.9152u    0.      
   10.00000n    1.8000  -285.4375u -110.9253u    0.      
   11.00000n    1.8000  -275.5502u -100.9354u    0.      
   12.00000n    1.8000  -265.7534u  -91.0327u    0.      
   13.00000n    1.8000  -256.6617u  -81.8089u    0.      
   14.00000n    1.8000  -247.5699u  -72.5850u    0.      
   15.00000n    1.8000  -238.4782u  -63.3611u    0.      
   16.00000n  720.0000m  297.8890u  472.8543u    0.      
   17.00000n    0.       776.2649u  934.9179u    0.      
   18.00000n    0.       780.1840u  931.5747u    0.      
   19.00000n    0.       760.6751u  929.7533u    0.      
   20.00000n    0.       741.1662u  927.9319u    0.      
   21.00000n    0.       729.1144u  926.2324u    0.      
   22.00000n    0.       725.8591u  924.6767u    0.      
   23.00000n    0.       722.6037u  923.1210u    0.      
   24.00000n    0.       719.3484u  921.5653u    0.      
   25.00000n    0.       716.0931u  920.0097u    0.      
   26.00000n    0.       714.1010u  918.2717u    0.      
   27.00000n    0.       713.5990u  916.3188u    0.      
   28.00000n    0.       713.0971u  914.3658u    0.      
   29.00000n    0.       712.5951u  912.4129u    0.      
   30.00000n    0.       712.0932u  910.4599u    0.      
   31.00000n    1.8000  -242.0272u -100.3465u    0.      
   32.00000n    1.8000  -187.9892u  -90.8778u    0.      
   33.00000n    1.8000  -180.7863u  -83.5204u    0.      
   34.00000n    1.8000  -173.6149u  -76.2019u    0.      
   35.00000n    1.8000  -167.9074u  -70.9021u    0.      
   36.00000n    1.8000  -163.9752u  -68.0504u    0.      
   37.00000n    1.8000  -160.0431u  -65.1988u    0.      
   38.00000n    1.8000  -156.1109u  -62.3471u    0.      
   39.00000n    1.8000  -152.1788u  -59.4954u    0.      
   40.00000n    1.8000  -152.7029u  -60.5186u    0.      
   41.00000n    1.8000  -158.6311u  -66.2410u    0.      
   42.00000n    1.8000  -164.5593u  -71.9634u    0.      
   43.00000n    1.8000  -170.4875u  -77.6857u    0.      
   44.00000n    1.8000  -176.4157u  -83.4081u    0.      
   45.00000n    1.8000  -182.3439u  -89.1304u    0.      
y
x

 time         voltage   
             rwl1       
    0.          0.      
    1.00000n    0.      
    2.00000n    0.      
    3.00000n    0.      
    4.00000n    0.      
    5.00000n    0.      
    6.00000n    0.      
    7.00000n    0.      
    8.00000n    0.      
    9.00000n    0.      
   10.00000n    0.      
   11.00000n    0.      
   12.00000n    0.      
   13.00000n    0.      
   14.00000n    0.      
   15.00000n    0.      
   16.00000n    0.      
   17.00000n    0.      
   18.00000n    0.      
   19.00000n    0.      
   20.00000n    0.      
   21.00000n    0.      
   22.00000n    0.      
   23.00000n    0.      
   24.00000n    0.      
   25.00000n    0.      
   26.00000n    0.      
   27.00000n    0.      
   28.00000n    0.      
   29.00000n    0.      
   30.00000n    0.      
   31.00000n    0.      
   32.00000n    0.      
   33.00000n    0.      
   34.00000n    0.      
   35.00000n    0.      
   36.00000n    0.      
   37.00000n    0.      
   38.00000n    0.      
   39.00000n    0.      
   40.00000n    0.      
   41.00000n    0.      
   42.00000n    0.      
   43.00000n    0.      
   44.00000n    0.      
   45.00000n    0.      
y

          ***** job concluded
 ******  
 .include '/home/tdene/public/skywater-src-nda/s8_spice_models/models.all'

 ****** job statistics summary tnom=  25.000 temp=  25.000 ******
  
 ******  Machine Information  ******
 CPU:
 model name	: Intel(R) Xeon(R) CPU E5-4617 0 @ 2.90GHz
 cpu MHz	: 2900.000
 CPU(s)		: 12
  
 OS:
 Linux version 3.10.0-1160.42.2.el7.x86_64 (mockbuild@x86-vm-40.build.eng.bos.redhat.com) (gcc version 4.8.5 20150623 (Red Hat 4.8.5-44) (GCC) ) #1 SMP Tue Aug 31 20:15:00 UTC 2021

 System loadavg : 1.41 5.76 6.83 3/3177 392


  ******  HSPICE Threads Information  ******

  Command Line Threads Count :     1
  Available CPU Count        :    12
  Actual Threads Count       :     1


  ****** Statistics of Ignored Elements ******
  Voltage Sources :       1

  ******  Circuit Statistics  ******
  # nodes       =      45 # elements   =      15
  # resistors   =       1 # capacitors =       0 # inductors   =       0
  # mutual_inds =       0 # vccs       =       0 # vcvs        =       0
  # cccs        =       0 # ccvs       =       0 # volt_srcs   =       4
  # curr_srcs   =       0 # diodes     =       0 # bjts        =       0
  # jfets       =       0 # mosfets    =      10 # U elements  =       0
  # T elements  =       0 # W elements =       0 # B elements  =       0
  # S elements  =       0 # P elements =       0 # va device   =       0
  # vector_srcs =       0 # N elements =       0


  ******  Runtime Statistics (seconds)  ******

  analysis           time    # points   tot. iter  conv.iter
  op point           0.01           1           3
  transient          0.00          46         110          39 rev=         3
  readin             0.27
  errchk             0.01
  setup              0.01
  output             0.00


           peak memory used        639.75 megabytes
           total cpu time            0.31 seconds
           total elapsed time        0.36 seconds
           job started at     08:43:05 11/19/2021
           job ended   at     08:43:05 11/19/2021

>info:         ***** hspice job concluded
           job total runtime         0.36 seconds


 lic: Release hspice token(s) 
 lic: total license checkout elapse time:        0.05(s)
