Using: /programs/synopsys/hspice/current/hspice/linux64/hspice sample.spice
 ****** PrimeSim HSPICE -- R-2020.12-SP1 linux64 (Apr 10 2021 6983340) ******
  Copyright (c) 1986 - 2021 by Synopsys, Inc. All Rights Reserved.
  This software and the associated documentation are proprietary
  to Synopsys, Inc. This software may only be used in accordance
  with the terms and conditions of a written license agreement with
  Synopsys, Inc. All other use, reproduction, or distribution of
  this software is strictly prohibited.
  Input File: sample.spice                                                      
  Command line options: /programs/synopsys/hspice/current/hspice/linux64/hspice sample.spice
  Start time: Fri Nov 19 08:36:38 2021
 lic:  
 lic: FLEXlm: SDK_12.9.5 
 lic: USER:   jstine               HOSTNAME: rivendell.ecen.okstate.edu 
 lic: HOSTID: "2c44fd862b18"       PID:      126569 
 lic: Using FLEXlm license file: 
 lic: 27020@trelaina.ecen.okstate.edu 
 lic: Checkout 1 hspice 
 lic: License/Maintenance for hspice will expire on 27-jan-2022/2020.12 
 lic: 1(in_use)/50(total) FLOATING license(s) on SERVER 27020@trelaina.ecen.okstate.edu 
 lic:   
  **warning** (sample.spice:6) Both nodes of element vgnd are connected together; Line ignored.
  **info** (sample.spice:8) DC voltage reset to initial transient source value in source 0:vin. new dc=0.0000D+00
 Model file: /home/tdene/Public/skywater-src-nda/s8_spice_models/pshort.pm3
 Model line:           20
 Model Name: pshort.0  
 BSIM4 Model (Level 54)
    MOBMOD = 0
    BINUNIT = 2
    PARAMCHK = 1
    CAPMOD = 2
    DIOMOD = 1
    RDSMOD = 0
    TRNQSMOD = 0
    ACNQSMOD = 0
    RBODYMOD = 1
    RGATEMOD = 0
    PERMOD = 1
    GEOMOD = 0
    RGEOMOD = 0
    FNOIMOD = 1
    TNOIMOD = 1
    IGCMOD = 0
    IGBMOD = 0
    STIMOD = 1
    VBFWDMOD = 0
    VERSION =    4.5 
    TOXREF = 4.23e-09 
    TOXE = 4.23e-09 
    TOXP = 4.23e-09 
    TOXM = 4.23e-09 
    DTOX =      0 
    EPSROX =    3.9 
    CDSC = 0.00013 
    CDSCB = 0.00078 
    CDSCD =      0 
    CIT =  1e-05 
    NFACTOR =  2.561 
    XJ = 1.5e-07 
    VSAT = 8.504e+04 
    A0 = 0.9129 
    AGS =   1.25 
    A1 =      0 
    A2 = 0.8737 
    AT = 5.094e+04 
    KETA = -0.02046 
    NSUB =  6e+16 
    NDEP = 1.7e+17 
    NSD =  1e+20 
    NGATE =  1e+23 
    GAMMA1 =      0 
    GAMMA2 =      0 
    VBX =      0 
    VBM =     -3 
    XT = 1.55e-07 
    K1 =  1.315 
    KT1 = -0.7098 
    KT1L =      0 
    KT2 =  -0.12 
    K2 = -0.2974 
    K3 = -15.85 
    K3B =      2 
    LPE0 =      0 
    LPEB =      0 
    DVTP0 =      0 
    DVTP1 =      0 
    W0 =      0 
    DVT0 =  4.495 
    DVT1 =  0.294 
    DVT2 =  0.015 
    DVT0W = -4.977 
    DVT1W = 1.147e+06 
    DVT2W = -0.00896 
    DROUT =      1 
    DSUB =   0.26 
    VTH0 = -1.029 
    EU =   1.67 
    UA = -2.453e-09 
    UA1 = 1.83e-10 
    UB = 2.308e-18 
    UB1 = 3.689e-19 
    UC = 1.613e-13 
    UC1 = 6.448e-12 
    U0 = 0.002903 
    UTE = -0.2124 
    VOFF = -0.3667 
    VOFFL =      0 
    MINV =      0 
    FPROUT =      0 
    PDITS =      0 
    PDITSD =      0 
    PDITSL =      0 
    DELTA =   0.01 
    RDSW =  547.9 
    RDSWMIN =      0 
    RDWMIN =      0 
    RSWMIN =      0 
    RDW =      0 
    RSW =      0 
    PRWG = 0.1376 
    PRWB = -0.3235 
    PRT =      0 
    ETA0 = 0.2106 
    ETAB = -0.01473 
    PCLM = 0.6163 
    PDIBLC1 = 0.1422 
    PDIBLC2 = 0.002651 
    PDIBLCB = -0.1519 
    PSCBE1 =  8e+08 
    PSCBE2 = 9.179e-09 
    PVAG =      0 
    WR =      1 
    DWG = -5.722e-09 
    DWB = -1.786e-08 
    XW =      0 
    XWREF =      0 
    XL =      0 
    XLREF =      0 
    B0 =      0 
    B1 =      0 
    ALPHA0 =  1e-10 
    ALPHA1 =  1e-10 
    AGIDL = 4.008e-10 
    BGIDL =  1e+09 
    CGIDL =    300 
    PHIN =      0 
    EGIDL =    0.1 
    AIGC =   0.43 
    BIGC =  0.054 
    CIGC =  0.075 
    AIGSD =   0.43 
    BIGSD =  0.054 
    CIGSD =  0.075 
    AIGBACC =   0.43 
    BIGBACC =  0.054 
    CIGBACC =  0.075 
    AIGBINV =   0.35 
    BIGBINV =   0.03 
    CIGBINV =  0.006 
    NIGC =      1 
    NIGBINV =      3 
    NIGBACC =      1 
    NTOX =      1 
    EIGBINV =    1.1 
    PIGCD =      1 
    POXEDGE =      1 
    XRCRG1 =     12 
    TNOIA = 2.5e+07 
    TNOIB =      0 
    NTNOI =      1 
    XRCRG2 =      1 
    BETA0 =  7.938 
    IJTHDFWD =    0.1 
    IJTHSFWD =    0.1 
    IJTHDREV =    0.1 
    IJTHSREV =    0.1 
    XJBVD =      1 
    XJBVS =      1 
    BVD =  12.69 
    BVS =  12.69 
    VFB =     -1 
    GBMIN =  1e-12 
    RBDB =     50 
    RBPB =     50 
    RBSB =     50 
    RBPS =     50 
    RBPD =     50 
    CGSL = 9.548e-12 
    CGDL = 9.548e-12 
    CKAPPAS =    0.6 
    CKAPPAD =    0.6 
    CF = 1.2e-11 
    CLC =  1e-07 
    CLE =    0.6 
    DWC =      0 
    DLC = -1.399e-08 
    DLCIG =      0 
    DWJ =      0 
    VFBCV = -0.1447 
    ACDE =    0.8 
    MOIN =  18.13 
    NOFF =    3.9 
    VOFFCV = -0.107 
    DMCG =      0 
    DMCI =      0 
    DMDG =      0 
    DMCGT =      0 
    XGW =      0 
    XGL =      0 
    RSHG =    0.1 
    NGCON =      1 
    TCJ = 0.001241 
    TPB = 0.002039 
    TCJSW = 0.0003736 
    TPBSW = 0.001246 
    TCJSWG =  2e-12 
    TPBSWG =      0 
    SK0 =      0 
    SK1 =      0 
    SK2 =      0 
    SL =  2e-06 
    SW =  2e-06 
    K =      0 
    TNOM =  303.1 
    CGSO = 5.249e-11 
    CGDO = 5.249e-11 
    CGBO =      0 
    XPART =      0 
    RSH =      1 
    JSS = 2.148e-05 
    JSWS = 8.04e-10 
    JSWGS =      0 
    PBS = 0.6587 
    MJS = 0.3463 
    PBSWS = 0.7418 
    MJSWS = 0.2978 
    CJS = 0.000738 
    CJSWS = 9.889e-11 
    NJS =  1.363 
    PBSWGS =  1.434 
    MJSWGS = 0.9274 
    CJSWGS = 2.392e-10 
    XTIS =    5.2 
    JSD = 2.148e-05 
    JSWD = 8.04e-10 
    JSWGD =      0 
    PBD = 0.6587 
    MJD = 0.3463 
    PBSWD = 0.7418 
    MJSWD = 0.2978 
    CJD = 0.000738 
    CJSWD = 9.889e-11 
    NJD =  1.363 
    PBSWGD =  1.434 
    MJSWGD = 0.9274 
    CJSWGD = 2.392e-10 
    XTID =    5.2 
    LMLT =      1 
    WMLT =      1 
    LINT = -1.399e-08 
    LL =      0 
    LLC =      0 
    LLN =      1 
    LW =      0 
    LWC =      0 
    LWN =      1 
    LWL =      0 
    LWLC =      0 
    LMIN = 1.45e-07 
    LMAX = 1.55e-07 
    WINT = 7.304e-09 
    WL =      0 
    WLC =      0 
    WLN =      1 
    WW =      0 
    WWC =      0 
    WWN =      1 
    WWL =      0 
    WWLC =      0 
    WMIN = 1.255e-06 
    WMAX = 1.265e-06 
    NOIA = 1.5e+42 
    NOIB =      0 
    NOIC =      0 
    EM = 4.1e+07 
    EF =      1 
    AF =      1 
    KF =      0 
    TRS =      0 
    TRD =      0 
    TEMPMOD  =      0 
    LAMBDA   =      0 
    VTL      =      0 m/s
    LC       =  5e-09 
    XN       =      3 
    LLAMBDA  =      0 
    LVTL     =      0 
    LXN      =      0 
    WLAMBDA  =      0 
    WVTL     =      0 
    WXN      =      0 
    PLAMBDA  =      0 
    PVTL     =      0 
    PXN      =      0 
    RNOIA    =   0.69 
    RNOIB    =   0.34 
    SAREF(SA0) = 1.04e-06 m
    SBREF(SB0) = 1.04e-06 m
    WLOD     =      0 m
    KU0      = 4.5e-08 1/m
    KVSAT    =    0.5 
    KVTH0    = 3.29e-08 m
    TKU0     =      0 
    LLODKU0  =      0 
    WLODKU0  =      1 
    LLODVTH  =      0 
    WLODVTH  =      1 
    LKU0     =      0 
    WKU0     = 2.5e-07 
    PKU0     =      0 
    LKVTH0   =      0 
    WKVTH0   =  2e-07 
    PKVTH0   =      0 
    STK2     =      0 
    LODK2    =      1 
    STETA0   =      0 
    LODETA0  =      1 
    LXRCRG1  =      0 
    WXRCRG1  =      0 
    PXRCRG1  =      0 
    LXRCRG2  =      0 
    WXRCRG2  =      0 
    PXRCRG2  =      0 
     *** UCB's BSIM4.4.0 new diode model is activated. ***
    *** UCB's Diode Model Parameters ***
    JTSS         =      0 
    JTSSWS       =      0 
    JTSSWGS      =      0 
    JTSD         =      0 
    JTSSWD       =      0 
    JTSSWGD      =      0 
    NJTS         =     20 
    NJTSSW       =     20 
    NJTSSWG      =     20 
    XTSS         =   0.02 
    XTSSWS       =   0.02 
    XTSSWGS      =   0.02 
    XTSD         =   0.02 
    XTSSWD       =   0.02 
    XTSSWGD      =   0.02 
    TNJTS        =      0 
    TNJTSSW      =      0 
    TNJTSSWG     =      0 
    VFBSDOFF     =      0 
    LVFBSDOFF    =      0 
    WVFBSDOFF    =      0 
    PVFBSDOFF    =      0 
    LINTNOI      = -2e-07 
    VTSS         =     10 
    VTSD         =     10 
    VTSSWS       =     10 
    VTSSWD       =     10 
    VTSSWGS      =     10 
    VTSSWGD      =     10 
    TTDIOMOD     =      1 
     *** UCB's BSIM4.5.0 new model is activated. ***
    UD         =      0 
    UD1        =      0 
    UP         =      0 
    LP         =      1 
    TVOFF      =      0 
    TVFBSDOFF  =      0 
    RBPS0      =     50 
    RBPSL      =      0 
    RBPSW      =      0 
    RBPSNF     =      0 
    RBPD0      =     50 
    RBPDL      =      0 
    RBPDW      =      0 
    RBPDNF     =      0 
    RBPBX0     =    100 
    RBPBXL     =      0 
    RBPBXW     =      0 
    RBPBXNF    =      0 
    RBPBY0     =    100 
    RBPBYL     =      0 
    RBPBYW     =      0 
    RBPBYNF    =      0 
    RBSBX0     =    100 
    RBSBY0     =    100 
    RBDBX0     =    100 
    RBDBY0     =    100 
    RBSDBXL    =      0 
    RBSDBXW    =      0 
    RBSDBXNF   =      0 
    RBSDBYL    =      0 
    RBSDBYW    =      0 
    RBSDBYNF   =      0 
    LUD        =      0 
    LUD1       =      0 
    LUP        =      0 
    LLP        =      0 
    LTVOFF     =      0 
    LTVFBSDOFF =      0 
    WUD        =      0 
    WUD1       =      0 
    WUP        =      0 
    WLP        =      0 
    WTVOFF     =      0 
    WTVFBSDOFF =      0 
    PUD        =      0 
    PUD1       =      0 
    PUP        =      0 
    PLP        =      0 
    PTVOFF     =      0 
    PTVFBSDOFF =      0 
    WEB        =      0 
    WEC        =      0 
    KVTH0WE    =      0 
    K2WE       =      0 
    KU0WE      =      0 
    SCREF      =  1e-06 
    WPEMOD     =      0 
    LKVTH0WE   =      0 
    LK2WE      =      0 
    LKU0WE     =      0 
    WKVTH0WE   =      0 
    WK2WE      =      0 
    WKU0WE     =      0 
    PKVTH0WE   =      0 
    PK2WE      =      0 
    PKU0WE     =      0 
 Model file: /home/tdene/Public/skywater-src-nda/s8_spice_models/nshort.pm3
 Model line:        16340
 Model Name: nshort.54  
 BSIM4 Model (Level 54)
    MOBMOD = 0
    BINUNIT = 2
    PARAMCHK = 1
    CAPMOD = 2
    DIOMOD = 1
    RDSMOD = 0
    TRNQSMOD = 0
    ACNQSMOD = 0
    RBODYMOD = 1
    RGATEMOD = 0
    PERMOD = 1
    GEOMOD = 0
    RGEOMOD = 0
    FNOIMOD = 1
    TNOIMOD = 1
    IGCMOD = 0
    IGBMOD = 0
    STIMOD = 1
    VBFWDMOD = 0
    VERSION =    4.5 
    TOXREF = 4.148e-09 
    TOXE = 4.148e-09 
    TOXP = 4.148e-09 
    TOXM = 4.148e-09 
    DTOX =      0 
    EPSROX =    3.9 
    CDSC =      0 
    CDSCB =      0 
    CDSCD = 0.002052 
    CIT =      0 
    NFACTOR =  2.594 
    XJ = 1.5e-07 
    VSAT = 1.886e+05 
    A0 =    1.5 
    AGS =   1.25 
    A1 =      0 
    A2 = 0.4239 
    AT = 5.372e+04 
    KETA = -0.03892 
    NSUB =  6e+16 
    NDEP = 1.7e+17 
    NSD =  1e+20 
    NGATE =  1e+23 
    GAMMA1 =      0 
    GAMMA2 =      0 
    VBX =      0 
    VBM =     -3 
    XT = 1.55e-07 
    K1 = 0.9071 
    KT1 = -0.241 
    KT1L =      0 
    KT2 = -0.02888 
    K2 = -0.1344 
    K3 =      2 
    K3B =   0.54 
    LPE0 = 1.033e-07 
    LPEB = -7.082e-08 
    DVTP0 =      0 
    DVTP1 =      0 
    W0 =      0 
    DVT0 =      0 
    DVT1 =   0.53 
    DVT2 = -0.032 
    DVT0W =  -3.58 
    DVT1W = 1.671e+06 
    DVT2W =  0.068 
    DROUT = 0.5033 
    DSUB = 0.4887 
    VTH0 = 0.4188 
    EU =   1.67 
    UA = -1.18e-09 
    UA1 = -2.385e-11 
    UB = 2.341e-18 
    UB1 = 7.078e-19 
    UC = 8.399e-11 
    UC1 = 1.472e-10 
    U0 = 0.0294 
    UTE = -1.248 
    VOFF = -0.2075 
    VOFFL = 5.82e-09 
    MINV =      0 
    FPROUT =      0 
    PDITS =      0 
    PDITSD =      0 
    PDITSL =      0 
    DELTA =   0.01 
    RDSW =  65.97 
    RDSWMIN =      0 
    RDWMIN =      0 
    RSWMIN =      0 
    RDW =      0 
    RSW =      0 
    PRWG = 0.02151 
    PRWB =      0 
    PRT =      0 
    ETA0 = 0.0005676 
    ETAB = -0.044 
    PCLM = 0.1598 
    PDIBLC1 =  0.357 
    PDIBLC2 = 0.008406 
    PDIBLCB = -0.1033 
    PSCBE1 = 7.914e+08 
    PSCBE2 =  1e-12 
    PVAG =      0 
    WR =      1 
    DWG =      0 
    DWB =      0 
    XW =      0 
    XWREF =      0 
    XL =      0 
    XLREF =      0 
    B0 =      0 
    B1 =      0 
    ALPHA0 =  3e-08 
    ALPHA1 =   0.85 
    AGIDL =      0 
    BGIDL = 2.3e+09 
    CGIDL =    0.5 
    PHIN =      0 
    EGIDL =    0.8 
    AIGC =   0.43 
    BIGC =  0.054 
    CIGC =  0.075 
    AIGSD =   0.43 
    BIGSD =  0.054 
    CIGSD =  0.075 
    AIGBACC =      1 
    BIGBACC =      0 
    CIGBACC =      0 
    AIGBINV =   0.35 
    BIGBINV =   0.03 
    CIGBINV =  0.006 
    NIGC =      0 
    NIGBINV =      0 
    NIGBACC =      0 
    NTOX =      1 
    EIGBINV =    1.1 
    PIGCD =      1 
    POXEDGE =      1 
    XRCRG1 =     12 
    TNOIA = 1.5e+07 
    TNOIB = 9.9e+06 
    NTNOI =      1 
    XRCRG2 =      1 
    BETA0 =  13.85 
    IJTHDFWD =    0.1 
    IJTHSFWD =    0.1 
    IJTHDREV =    0.1 
    IJTHSREV =    0.1 
    XJBVD =      1 
    XJBVS =      1 
    BVD =   11.7 
    BVS =   11.7 
    VFB =     -1 
    GBMIN =  1e-12 
    RBDB =     50 
    RBPB =     50 
    RBSB =     50 
    RBPS =     50 
    RBPD =     50 
    CGSL =      0 
    CGDL =      0 
    CKAPPAS =    0.6 
    CKAPPAD =    0.6 
    CF = 1.407e-12 
    CLC =  1e-07 
    CLE =    0.6 
    DWC =      0 
    DLC = 1.193e-08 
    DLCIG =      0 
    DWJ =      0 
    VFBCV =     -1 
    ACDE =    0.4 
    MOIN =    6.9 
    NOFF =  3.404 
    VOFFCV = -0.1729 
    DMCG =      0 
    DMCI =      0 
    DMDG =      0 
    DMCGT =      0 
    XGW =      0 
    XGL =      0 
    RSHG =    0.1 
    NGCON =      1 
    TCJ = 0.000792 
    TPB = 0.001229 
    TCJSW =  1e-05 
    TPBSW =      0 
    TCJSWG =      0 
    TPBSWG =      0 
    SK0 =      0 
    SK1 =      0 
    SK2 =      0 
    SL =  2e-06 
    SW =  2e-06 
    K =      0 
    TNOM =  303.1 
    CGSO = 2.449e-10 
    CGDO = 2.449e-10 
    CGBO =  1e-13 
    XPART =      0 
    RSH =      1 
    JSS = 0.00275 
    JSWS =  6e-10 
    JSWGS =      0 
    PBS =  0.729 
    MJS =   0.44 
    PBSWS =    0.2 
    MJSWS = 0.0009 
    CJS = 0.00134 
    CJSWS = 3.674e-11 
    NJS =  1.293 
    PBSWGS = 0.9558 
    MJSWGS =    0.8 
    CJSWGS = 2.382e-10 
    XTIS =      2 
    JSD = 0.00275 
    JSWD =  6e-10 
    JSWGD =      0 
    PBD =  0.729 
    MJD =   0.44 
    PBSWD =    0.2 
    MJSWD = 0.0009 
    CJD = 0.00134 
    CJSWD = 3.674e-11 
    NJD =  1.293 
    PBSWGD = 0.9558 
    MJSWGD =    0.8 
    CJSWGD = 2.382e-10 
    XTID =      2 
    LMLT =      1 
    WMLT =      1 
    LINT = 1.193e-08 
    LL =      0 
    LLC =      0 
    LLN =      1 
    LW =      0 
    LWC =      0 
    LWN =      1 
    LWL =      0 
    LWLC =      0 
    LMIN = 1.49e-07 
    LMAX = 1.51e-07 
    WINT = 2.186e-08 
    WL =      0 
    WLC =      0 
    WLN =      1 
    WW =      0 
    WWC =      0 
    WWN =      1 
    WWL =      0 
    WWLC =      0 
    WMIN = 5.19e-07 
    WMAX = 5.21e-07 
    NOIA = 2.5e+42 
    NOIB =      0 
    NOIC =      0 
    EM = 4.1e+07 
    EF =   0.84 
    AF =      1 
    KF =      0 
    TRS =      0 
    TRD =      0 
    TEMPMOD  =      0 
    LAMBDA   =      0 
    VTL      =      0 m/s
    LC       =  5e-09 
    XN       =      3 
    LLAMBDA  =      0 
    LVTL     =      0 
    LXN      =      0 
    WLAMBDA  =      0 
    WVTL     =      0 
    WXN      =      0 
    PLAMBDA  =      0 
    PVTL     =      0 
    PXN      =      0 
    RNOIA    =   0.94 
    RNOIB    =   0.26 
    SAREF(SA0) = 1.04e-06 m
    SBREF(SB0) = 1.04e-06 m
    WLOD     =      0 m
    KU0      = -2.7e-08 1/m
    KVSAT    =    0.2 
    KVTH0    = 9.8e-09 m
    TKU0     =      0 
    LLODKU0  =      0 
    WLODKU0  =      1 
    LLODVTH  =      0 
    WLODVTH  =      1 
    LKU0     =      0 
    WKU0     =      0 
    PKU0     =      0 
    LKVTH0   =      0 
    WKVTH0   =  2e-07 
    PKVTH0   =      0 
    STK2     =      0 
    LODK2    =      1 
    STETA0   =      0 
    LODETA0  =      1 
    LXRCRG1  =      0 
    WXRCRG1  =      0 
    PXRCRG1  =      0 
    LXRCRG2  =      0 
    WXRCRG2  =      0 
    PXRCRG2  =      0 
     *** UCB's BSIM4.4.0 new diode model is activated. ***
    *** UCB's Diode Model Parameters ***
    JTSS         =      0 
    JTSSWS       =      0 
    JTSSWGS      =      0 
    JTSD         =      0 
    JTSSWD       =      0 
    JTSSWGD      =      0 
    NJTS         =     20 
    NJTSSW       =     20 
    NJTSSWG      =     20 
    XTSS         =   0.02 
    XTSSWS       =   0.02 
    XTSSWGS      =   0.02 
    XTSD         =   0.02 
    XTSSWD       =   0.02 
    XTSSWGD      =   0.02 
    TNJTS        =      0 
    TNJTSSW      =      0 
    TNJTSSWG     =      0 
    VFBSDOFF     =      0 
    LVFBSDOFF    =      0 
    WVFBSDOFF    =      0 
    PVFBSDOFF    =      0 
    LINTNOI      = -1e-07 
    VTSS         =     10 
    VTSD         =     10 
    VTSSWS       =     10 
    VTSSWD       =     10 
    VTSSWGS      =     10 
    VTSSWGD      =     10 
    TTDIOMOD     =      1 
     *** UCB's BSIM4.5.0 new model is activated. ***
    UD         =      0 
    UD1        =      0 
    UP         =      0 
    LP         =      1 
    TVOFF      =      0 
    TVFBSDOFF  =      0 
    RBPS0      =     50 
    RBPSL      =      0 
    RBPSW      =      0 
    RBPSNF     =      0 
    RBPD0      =     50 
    RBPDL      =      0 
    RBPDW      =      0 
    RBPDNF     =      0 
    RBPBX0     =    100 
    RBPBXL     =      0 
    RBPBXW     =      0 
    RBPBXNF    =      0 
    RBPBY0     =    100 
    RBPBYL     =      0 
    RBPBYW     =      0 
    RBPBYNF    =      0 
    RBSBX0     =    100 
    RBSBY0     =    100 
    RBDBX0     =    100 
    RBDBY0     =    100 
    RBSDBXL    =      0 
    RBSDBXW    =      0 
    RBSDBXNF   =      0 
    RBSDBYL    =      0 
    RBSDBYW    =      0 
    RBSDBYNF   =      0 
    LUD        =      0 
    LUD1       =      0 
    LUP        =      0 
    LLP        =      0 
    LTVOFF     =      0 
    LTVFBSDOFF =      0 
    WUD        =      0 
    WUD1       =      0 
    WUP        =      0 
    WLP        =      0 
    WTVOFF     =      0 
    WTVFBSDOFF =      0 
    PUD        =      0 
    PUD1       =      0 
    PUP        =      0 
    PLP        =      0 
    PTVOFF     =      0 
    PTVFBSDOFF =      0 
    WEB        =      0 
    WEC        =      0 
    KVTH0WE    =      0 
    K2WE       =      0 
    KU0WE      =      0 
    SCREF      =  1e-06 
    WPEMOD     =      0 
    LKVTH0WE   =      0 
    LK2WE      =      0 
    LKU0WE     =      0 
    WKVTH0WE   =      0 
    WK2WE      =      0 
    WKU0WE     =      0 
    PKVTH0WE   =      0 
    PK2WE      =      0 
    PKU0WE     =      0 
  
      
 **info** set option symb=1 internally to help for convergence.
 *****************************************************************
 ******  option summary
 ******
 runlvl  = 3         bypass  = 2.0000    
 **info** dc convergence successful at Newton-Raphson method 
1****** PrimeSim HSPICE -- R-2020.12-SP1 linux64 (Apr 10 2021 6983340) ******
 ******  
 .include '/home/tdene/public/skywater-src-nda/s8_spice_models/models.all'

 ****** operating point information tnom=  25.000 temp=  25.000 ******
 ****** operating point status is all       simulation time is     0.     
    node    =voltage      node    =voltage      node    =voltage

 +0:in      =   0.      0:out     =   1.8000  0:vdd     =   1.8000 


 maximum nodal capacitance=   1.022E-13         on node     0:out             

    nodal  capacitance table 

    node    =    cap      node    =    cap      node    =    cap

 +0:in      =   2.3747f 0:out     = 102.2163f 0:vdd     =   3.6268f

 

 **** voltage sources

 subckt                        
 element  0:vin      0:vvdd    
  volts      0.         1.8000 
  current    0.        -1.9134p
  power      0.         3.4441p

     total voltage source power dissipation=    3.4441p       watts




 **** mosfets


 subckt                        
 element  0:m1000    0:m1001   
 model    0:pshort.0 0:nshort.5
 region   Linear     Cutoff    
  id        -1.9134p  112.7394f
  ibs     -2.270e-28  1.144e-23
  ibd      4.893e-21   -1.8005p
  vgs       -1.8000     0.     
  vds       -4.7871n    1.8000 
  vbs        0.         0.     
  vth     -753.2087m  752.2978m
  vdsat   -764.5459m   42.9391m
  vod       -1.0468  -752.2978m
  beta     457.6220u    1.0308m
  gam eff    1.3152   907.0735m
  gm         1.2738p    2.9714p
  gds      399.6906u  100.5869f
  gmb      402.1628f  800.4441f
  cdtot      1.8900f  326.3093a
  cgtot      1.9264f  448.3093a
  cstot      1.4009f  476.7976a
  cbtot      2.2260f  735.0868a
  cgs      721.6762a  130.6406a
  cgd      858.3538a  128.0515a



 ******
 .include '/home/tdene/public/skywater-src-nda/s8_spice_models/models.all'

 ****** transient analysis tnom=  25.000 temp=  25.000 ******
x

 time         voltage    voltage   
             in         out        
    0.          0.         1.8000  
    1.00000n    1.8000   648.2257m 
    2.00000n    1.8000     5.4561m 
    3.00000n    1.8000    57.2258u 
    4.00000n    1.8000   -45.0788u 
    5.00000n    1.8000    10.4128u 
    6.00000n    1.8000    16.7158u 
    7.00000n    1.8000     8.4665u 
    8.00000n    1.8000   217.2426n 
    9.00000n    1.8000    -8.0321u 
   10.00000n    1.8000   -11.9337u 
   11.00000n    1.8000    -7.6413u 
   12.00000n    1.8000    -3.3490u 
   13.00000n    1.8000   943.3802n 
   14.00000n    1.8000     5.2357u 
   15.00000n    1.8000     3.9625u 
   16.00000n  720.0000m  112.0150m 
   17.00000n    0.         1.5962  
   18.00000n    0.         1.7982  
   19.00000n    0.         1.8000  
   20.00000n    0.         1.8000  
   21.00000n    0.         1.8000  
   22.00000n    0.         1.8000  
   23.00000n    0.         1.8000  
   24.00000n    0.         1.8000  
   25.00000n    0.         1.8000  
   26.00000n    0.         1.8000  
   27.00000n    0.         1.8000  
   28.00000n    0.         1.8000  
   29.00000n    0.         1.8000  
   30.00000n    0.         1.8000  
   31.00000n    1.8000   632.4675m 
   32.00000n    1.8000     1.7709m 
   33.00000n    1.8000    44.4719u 
   34.00000n    1.8000   -13.2180u 
   35.00000n    1.8000    15.4407u 
   36.00000n    1.8000    10.5162u 
   37.00000n    1.8000     5.1839u 
   38.00000n    1.8000  -148.2841n 
   39.00000n    1.8000    -5.4805u 
   40.00000n    1.8000    -8.3391u 
   41.00000n    1.8000    -5.5525u 
   42.00000n    1.8000    -2.7659u 
   43.00000n    1.8000    20.7881n 
   44.00000n    1.8000     2.8074u 
   45.00000n    1.8000     5.5941u 
y

          ***** job concluded
 ******  
 .include '/home/tdene/public/skywater-src-nda/s8_spice_models/models.all'

 ****** job statistics summary tnom=  25.000 temp=  25.000 ******
  
 ******  Machine Information  ******
 CPU:
 model name	: Intel(R) Xeon(R) CPU E5-4617 0 @ 2.90GHz
 cpu MHz	: 2900.000
 CPU(s)		: 12
  
 OS:
 Linux version 3.10.0-1160.42.2.el7.x86_64 (mockbuild@x86-vm-40.build.eng.bos.redhat.com) (gcc version 4.8.5 20150623 (Red Hat 4.8.5-44) (GCC) ) #1 SMP Tue Aug 31 20:15:00 UTC 2021

 System loadavg : 2.37 6.96 7.34 3/3171 126575


  ******  HSPICE Threads Information  ******

  Command Line Threads Count :     1
  Available CPU Count        :    12
  Actual Threads Count       :     1


  ****** Statistics of Ignored Elements ******
  Voltage Sources :       1

  ******  Circuit Statistics  ******
  # nodes       =      10 # elements   =       5
  # resistors   =       0 # capacitors =       1 # inductors   =       0
  # mutual_inds =       0 # vccs       =       0 # vcvs        =       0
  # cccs        =       0 # ccvs       =       0 # volt_srcs   =       2
  # curr_srcs   =       0 # diodes     =       0 # bjts        =       0
  # jfets       =       0 # mosfets    =       2 # U elements  =       0
  # T elements  =       0 # W elements =       0 # B elements  =       0
  # S elements  =       0 # P elements =       0 # va device   =       0
  # vector_srcs =       0 # N elements =       0


  ******  Runtime Statistics (seconds)  ******

  analysis           time    # points   tot. iter  conv.iter
  op point           0.01           1           4
  transient          0.00          46         126          52 rev=         2
  readin             0.26
  errchk             0.01
  setup              0.00
  output             0.00


           peak memory used        638.76 megabytes
           total cpu time            0.28 seconds
           total elapsed time        0.34 seconds
           job started at     08:36:38 11/19/2021
           job ended   at     08:36:39 11/19/2021

>info:         ***** hspice job concluded
           job total runtime         0.34 seconds


 lic: Release hspice token(s) 
 lic: total license checkout elapse time:        0.05(s)
