Using: /programs/synopsys/hspice/current/hspice/linux64/hspice sram5.sp
 ****** PrimeSim HSPICE -- R-2020.12-SP1 linux64 (Apr 10 2021 6983340) ******
  Copyright (c) 1986 - 2021 by Synopsys, Inc. All Rights Reserved.
  This software and the associated documentation are proprietary
  to Synopsys, Inc. This software may only be used in accordance
  with the terms and conditions of a written license agreement with
  Synopsys, Inc. All other use, reproduction, or distribution of
  this software is strictly prohibited.
  Input File: sram5.sp                                                          
  Command line options: /programs/synopsys/hspice/current/hspice/linux64/hspice sram5.sp
  Start time: Thu Dec  9 15:19:40 2021
 lic:  
 lic: FLEXlm: SDK_12.9.5 
 lic: USER:   jstine               HOSTNAME: rivendell.ecen.okstate.edu 
 lic: HOSTID: "2c44fd862b18"       PID:      21593 
 lic: Using FLEXlm license file: 
 lic: 27020@trelaina.ecen.okstate.edu 
 lic: Checkout 1 hspice 
 lic: License/Maintenance for hspice will expire on 27-jan-2022/2020.12 
 lic: 1(in_use)/50(total) FLOATING license(s) on SERVER 27020@trelaina.ecen.okstate.edu 
 lic:   
  **warning** (/home/tdene/Public/skywater-src-nda/s8_spice_models/models.all:10) Unknown option mc_ignore_binning. Check the option name again.
1****** PrimeSim HSPICE -- R-2020.12-SP1 linux64 (Apr 10 2021 6983340) ******
 ******  
 *

 ****** circuit name directory
 circuit number to circuit name directory
   number circuitname                     definition         multiplier
        0 main circuit
        1 x1.                             mem10t-toy         1.00 
        2 x1.xinvm.                       invm               1.00 
        3 x1.xinv.                        invm               1.00 
  **warning** (sram5.sp:13) Both nodes of element vgnd are connected together; Line ignored.
  **info** (sram5.sp:50) DC voltage reset to initial transient source value in source 0:vrwl0. new dc=0.0000D+00
 Model file: /home/tdene/Public/skywater-src-nda/s8_spice_models/pshort.pm3
 Model line:           20
 Model Name: pshort.0  
 BSIM4 Model (Level 54)
    MOBMOD = 0
    BINUNIT = 2
    PARAMCHK = 1
    CAPMOD = 2
    DIOMOD = 1
    RDSMOD = 0
    TRNQSMOD = 0
    ACNQSMOD = 0
    RBODYMOD = 1
    RGATEMOD = 0
    PERMOD = 1
    GEOMOD = 0
    RGEOMOD = 0
    FNOIMOD = 1
    TNOIMOD = 1
    IGCMOD = 0
    IGBMOD = 0
    STIMOD = 1
    VBFWDMOD = 0
    VERSION =    4.5 
    TOXREF = 4.23e-09 
    TOXE = 4.23e-09 
    TOXP = 4.23e-09 
    TOXM = 4.23e-09 
    DTOX =      0 
    EPSROX =    3.9 
    CDSC = 0.00013 
    CDSCB = 0.00078 
    CDSCD =      0 
    CIT =  1e-05 
    NFACTOR =  2.561 
    XJ = 1.5e-07 
    VSAT = 8.504e+04 
    A0 = 0.9129 
    AGS =   1.25 
    A1 =      0 
    A2 = 0.8737 
    AT = 5.094e+04 
    KETA = -0.02046 
    NSUB =  6e+16 
    NDEP = 1.7e+17 
    NSD =  1e+20 
    NGATE =  1e+23 
    GAMMA1 =      0 
    GAMMA2 =      0 
    VBX =      0 
    VBM =     -3 
    XT = 1.55e-07 
    K1 =  1.315 
    KT1 = -0.7098 
    KT1L =      0 
    KT2 =  -0.12 
    K2 = -0.2974 
    K3 = -15.85 
    K3B =      2 
    LPE0 =      0 
    LPEB =      0 
    DVTP0 =      0 
    DVTP1 =      0 
    W0 =      0 
    DVT0 =  4.495 
    DVT1 =  0.294 
    DVT2 =  0.015 
    DVT0W = -4.977 
    DVT1W = 1.147e+06 
    DVT2W = -0.00896 
    DROUT =      1 
    DSUB =   0.26 
    VTH0 = -1.029 
    EU =   1.67 
    UA = -2.453e-09 
    UA1 = 1.83e-10 
    UB = 2.308e-18 
    UB1 = 3.689e-19 
    UC = 1.613e-13 
    UC1 = 6.448e-12 
    U0 = 0.002903 
    UTE = -0.2124 
    VOFF = -0.3667 
    VOFFL =      0 
    MINV =      0 
    FPROUT =      0 
    PDITS =      0 
    PDITSD =      0 
    PDITSL =      0 
    DELTA =   0.01 
    RDSW =  547.9 
    RDSWMIN =      0 
    RDWMIN =      0 
    RSWMIN =      0 
    RDW =      0 
    RSW =      0 
    PRWG = 0.1376 
    PRWB = -0.3235 
    PRT =      0 
    ETA0 = 0.2106 
    ETAB = -0.01473 
    PCLM = 0.6163 
    PDIBLC1 = 0.1422 
    PDIBLC2 = 0.002651 
    PDIBLCB = -0.1519 
    PSCBE1 =  8e+08 
    PSCBE2 = 9.179e-09 
    PVAG =      0 
    WR =      1 
    DWG = -5.722e-09 
    DWB = -1.786e-08 
    XW =      0 
    XWREF =      0 
    XL =      0 
    XLREF =      0 
    B0 =      0 
    B1 =      0 
    ALPHA0 =  1e-10 
    ALPHA1 =  1e-10 
    AGIDL = 4.008e-10 
    BGIDL =  1e+09 
    CGIDL =    300 
    PHIN =      0 
    EGIDL =    0.1 
    AIGC =   0.43 
    BIGC =  0.054 
    CIGC =  0.075 
    AIGSD =   0.43 
    BIGSD =  0.054 
    CIGSD =  0.075 
    AIGBACC =   0.43 
    BIGBACC =  0.054 
    CIGBACC =  0.075 
    AIGBINV =   0.35 
    BIGBINV =   0.03 
    CIGBINV =  0.006 
    NIGC =      1 
    NIGBINV =      3 
    NIGBACC =      1 
    NTOX =      1 
    EIGBINV =    1.1 
    PIGCD =      1 
    POXEDGE =      1 
    XRCRG1 =     12 
    TNOIA = 2.5e+07 
    TNOIB =      0 
    NTNOI =      1 
    XRCRG2 =      1 
    BETA0 =  7.938 
    IJTHDFWD =    0.1 
    IJTHSFWD =    0.1 
    IJTHDREV =    0.1 
    IJTHSREV =    0.1 
    XJBVD =      1 
    XJBVS =      1 
    BVD =  12.69 
    BVS =  12.69 
    VFB =     -1 
    GBMIN =  1e-12 
    RBDB =     50 
    RBPB =     50 
    RBSB =     50 
    RBPS =     50 
    RBPD =     50 
    CGSL = 9.548e-12 
    CGDL = 9.548e-12 
    CKAPPAS =    0.6 
    CKAPPAD =    0.6 
    CF = 1.2e-11 
    CLC =  1e-07 
    CLE =    0.6 
    DWC =      0 
    DLC = -1.399e-08 
    DLCIG =      0 
    DWJ =      0 
    VFBCV = -0.1447 
    ACDE =    0.8 
    MOIN =  18.13 
    NOFF =    3.9 
    VOFFCV = -0.107 
    DMCG =      0 
    DMCI =      0 
    DMDG =      0 
    DMCGT =      0 
    XGW =      0 
    XGL =      0 
    RSHG =    0.1 
    NGCON =      1 
    TCJ = 0.001241 
    TPB = 0.002039 
    TCJSW = 0.0003736 
    TPBSW = 0.001246 
    TCJSWG =  2e-12 
    TPBSWG =      0 
    SK0 =      0 
    SK1 =      0 
    SK2 =      0 
    SL =  2e-06 
    SW =  2e-06 
    K =      0 
    TNOM =  303.1 
    CGSO = 5.249e-11 
    CGDO = 5.249e-11 
    CGBO =      0 
    XPART =      0 
    RSH =      1 
    JSS = 2.148e-05 
    JSWS = 8.04e-10 
    JSWGS =      0 
    PBS = 0.6587 
    MJS = 0.3463 
    PBSWS = 0.7418 
    MJSWS = 0.2978 
    CJS = 0.000738 
    CJSWS = 9.889e-11 
    NJS =  1.363 
    PBSWGS =  1.434 
    MJSWGS = 0.9274 
    CJSWGS = 2.392e-10 
    XTIS =    5.2 
    JSD = 2.148e-05 
    JSWD = 8.04e-10 
    JSWGD =      0 
    PBD = 0.6587 
    MJD = 0.3463 
    PBSWD = 0.7418 
    MJSWD = 0.2978 
    CJD = 0.000738 
    CJSWD = 9.889e-11 
    NJD =  1.363 
    PBSWGD =  1.434 
    MJSWGD = 0.9274 
    CJSWGD = 2.392e-10 
    XTID =    5.2 
    LMLT =      1 
    WMLT =      1 
    LINT = -1.399e-08 
    LL =      0 
    LLC =      0 
    LLN =      1 
    LW =      0 
    LWC =      0 
    LWN =      1 
    LWL =      0 
    LWLC =      0 
    LMIN = 1.45e-07 
    LMAX = 1.55e-07 
    WINT = 7.304e-09 
    WL =      0 
    WLC =      0 
    WLN =      1 
    WW =      0 
    WWC =      0 
    WWN =      1 
    WWL =      0 
    WWLC =      0 
    WMIN = 1.255e-06 
    WMAX = 1.265e-06 
    NOIA = 1.5e+42 
    NOIB =      0 
    NOIC =      0 
    EM = 4.1e+07 
    EF =      1 
    AF =      1 
    KF =      0 
    TRS =      0 
    TRD =      0 
    TEMPMOD  =      0 
    LAMBDA   =      0 
    VTL      =      0 m/s
    LC       =  5e-09 
    XN       =      3 
    LLAMBDA  =      0 
    LVTL     =      0 
    LXN      =      0 
    WLAMBDA  =      0 
    WVTL     =      0 
    WXN      =      0 
    PLAMBDA  =      0 
    PVTL     =      0 
    PXN      =      0 
    RNOIA    =   0.69 
    RNOIB    =   0.34 
    SAREF(SA0) = 1.04e-06 m
    SBREF(SB0) = 1.04e-06 m
    WLOD     =      0 m
    KU0      = 4.5e-08 1/m
    KVSAT    =    0.5 
    KVTH0    = 3.29e-08 m
    TKU0     =      0 
    LLODKU0  =      0 
    WLODKU0  =      1 
    LLODVTH  =      0 
    WLODVTH  =      1 
    LKU0     =      0 
    WKU0     = 2.5e-07 
    PKU0     =      0 
    LKVTH0   =      0 
    WKVTH0   =  2e-07 
    PKVTH0   =      0 
    STK2     =      0 
    LODK2    =      1 
    STETA0   =      0 
    LODETA0  =      1 
    LXRCRG1  =      0 
    WXRCRG1  =      0 
    PXRCRG1  =      0 
    LXRCRG2  =      0 
    WXRCRG2  =      0 
    PXRCRG2  =      0 
     *** UCB's BSIM4.4.0 new diode model is activated. ***
    *** UCB's Diode Model Parameters ***
    JTSS         =      0 
    JTSSWS       =      0 
    JTSSWGS      =      0 
    JTSD         =      0 
    JTSSWD       =      0 
    JTSSWGD      =      0 
    NJTS         =     20 
    NJTSSW       =     20 
    NJTSSWG      =     20 
    XTSS         =   0.02 
    XTSSWS       =   0.02 
    XTSSWGS      =   0.02 
    XTSD         =   0.02 
    XTSSWD       =   0.02 
    XTSSWGD      =   0.02 
    TNJTS        =      0 
    TNJTSSW      =      0 
    TNJTSSWG     =      0 
    VFBSDOFF     =      0 
    LVFBSDOFF    =      0 
    WVFBSDOFF    =      0 
    PVFBSDOFF    =      0 
    LINTNOI      = -2e-07 
    VTSS         =     10 
    VTSD         =     10 
    VTSSWS       =     10 
    VTSSWD       =     10 
    VTSSWGS      =     10 
    VTSSWGD      =     10 
    TTDIOMOD     =      1 
     *** UCB's BSIM4.5.0 new model is activated. ***
    UD         =      0 
    UD1        =      0 
    UP         =      0 
    LP         =      1 
    TVOFF      =      0 
    TVFBSDOFF  =      0 
    RBPS0      =     50 
    RBPSL      =      0 
    RBPSW      =      0 
    RBPSNF     =      0 
    RBPD0      =     50 
    RBPDL      =      0 
    RBPDW      =      0 
    RBPDNF     =      0 
    RBPBX0     =    100 
    RBPBXL     =      0 
    RBPBXW     =      0 
    RBPBXNF    =      0 
    RBPBY0     =    100 
    RBPBYL     =      0 
    RBPBYW     =      0 
    RBPBYNF    =      0 
    RBSBX0     =    100 
    RBSBY0     =    100 
    RBDBX0     =    100 
    RBDBY0     =    100 
    RBSDBXL    =      0 
    RBSDBXW    =      0 
    RBSDBXNF   =      0 
    RBSDBYL    =      0 
    RBSDBYW    =      0 
    RBSDBYNF   =      0 
    LUD        =      0 
    LUD1       =      0 
    LUP        =      0 
    LLP        =      0 
    LTVOFF     =      0 
    LTVFBSDOFF =      0 
    WUD        =      0 
    WUD1       =      0 
    WUP        =      0 
    WLP        =      0 
    WTVOFF     =      0 
    WTVFBSDOFF =      0 
    PUD        =      0 
    PUD1       =      0 
    PUP        =      0 
    PLP        =      0 
    PTVOFF     =      0 
    PTVFBSDOFF =      0 
    WEB        =      0 
    WEC        =      0 
    KVTH0WE    =      0 
    K2WE       =      0 
    KU0WE      =      0 
    SCREF      =  1e-06 
    WPEMOD     =      0 
    LKVTH0WE   =      0 
    LK2WE      =      0 
    LKU0WE     =      0 
    WKVTH0WE   =      0 
    WK2WE      =      0 
    WKU0WE     =      0 
    PKVTH0WE   =      0 
    PK2WE      =      0 
    PKU0WE     =      0 
 Model file: /home/tdene/Public/skywater-src-nda/s8_spice_models/nshort.pm3
 Model line:        16340
 Model Name: nshort.54  
 BSIM4 Model (Level 54)
    MOBMOD = 0
    BINUNIT = 2
    PARAMCHK = 1
    CAPMOD = 2
    DIOMOD = 1
    RDSMOD = 0
    TRNQSMOD = 0
    ACNQSMOD = 0
    RBODYMOD = 1
    RGATEMOD = 0
    PERMOD = 1
    GEOMOD = 0
    RGEOMOD = 0
    FNOIMOD = 1
    TNOIMOD = 1
    IGCMOD = 0
    IGBMOD = 0
    STIMOD = 1
    VBFWDMOD = 0
    VERSION =    4.5 
    TOXREF = 4.148e-09 
    TOXE = 4.148e-09 
    TOXP = 4.148e-09 
    TOXM = 4.148e-09 
    DTOX =      0 
    EPSROX =    3.9 
    CDSC =      0 
    CDSCB =      0 
    CDSCD = 0.002052 
    CIT =      0 
    NFACTOR =  2.594 
    XJ = 1.5e-07 
    VSAT = 1.886e+05 
    A0 =    1.5 
    AGS =   1.25 
    A1 =      0 
    A2 = 0.4239 
    AT = 5.372e+04 
    KETA = -0.03892 
    NSUB =  6e+16 
    NDEP = 1.7e+17 
    NSD =  1e+20 
    NGATE =  1e+23 
    GAMMA1 =      0 
    GAMMA2 =      0 
    VBX =      0 
    VBM =     -3 
    XT = 1.55e-07 
    K1 = 0.9071 
    KT1 = -0.241 
    KT1L =      0 
    KT2 = -0.02888 
    K2 = -0.1344 
    K3 =      2 
    K3B =   0.54 
    LPE0 = 1.033e-07 
    LPEB = -7.082e-08 
    DVTP0 =      0 
    DVTP1 =      0 
    W0 =      0 
    DVT0 =      0 
    DVT1 =   0.53 
    DVT2 = -0.032 
    DVT0W =  -3.58 
    DVT1W = 1.671e+06 
    DVT2W =  0.068 
    DROUT = 0.5033 
    DSUB = 0.4887 
    VTH0 = 0.4188 
    EU =   1.67 
    UA = -1.18e-09 
    UA1 = -2.385e-11 
    UB = 2.341e-18 
    UB1 = 7.078e-19 
    UC = 8.399e-11 
    UC1 = 1.472e-10 
    U0 = 0.0294 
    UTE = -1.248 
    VOFF = -0.2075 
    VOFFL = 5.82e-09 
    MINV =      0 
    FPROUT =      0 
    PDITS =      0 
    PDITSD =      0 
    PDITSL =      0 
    DELTA =   0.01 
    RDSW =  65.97 
    RDSWMIN =      0 
    RDWMIN =      0 
    RSWMIN =      0 
    RDW =      0 
    RSW =      0 
    PRWG = 0.02151 
    PRWB =      0 
    PRT =      0 
    ETA0 = 0.0005676 
    ETAB = -0.044 
    PCLM = 0.1598 
    PDIBLC1 =  0.357 
    PDIBLC2 = 0.008406 
    PDIBLCB = -0.1033 
    PSCBE1 = 7.914e+08 
    PSCBE2 =  1e-12 
    PVAG =      0 
    WR =      1 
    DWG =      0 
    DWB =      0 
    XW =      0 
    XWREF =      0 
    XL =      0 
    XLREF =      0 
    B0 =      0 
    B1 =      0 
    ALPHA0 =  3e-08 
    ALPHA1 =   0.85 
    AGIDL =      0 
    BGIDL = 2.3e+09 
    CGIDL =    0.5 
    PHIN =      0 
    EGIDL =    0.8 
    AIGC =   0.43 
    BIGC =  0.054 
    CIGC =  0.075 
    AIGSD =   0.43 
    BIGSD =  0.054 
    CIGSD =  0.075 
    AIGBACC =      1 
    BIGBACC =      0 
    CIGBACC =      0 
    AIGBINV =   0.35 
    BIGBINV =   0.03 
    CIGBINV =  0.006 
    NIGC =      0 
    NIGBINV =      0 
    NIGBACC =      0 
    NTOX =      1 
    EIGBINV =    1.1 
    PIGCD =      1 
    POXEDGE =      1 
    XRCRG1 =     12 
    TNOIA = 1.5e+07 
    TNOIB = 9.9e+06 
    NTNOI =      1 
    XRCRG2 =      1 
    BETA0 =  13.85 
    IJTHDFWD =    0.1 
    IJTHSFWD =    0.1 
    IJTHDREV =    0.1 
    IJTHSREV =    0.1 
    XJBVD =      1 
    XJBVS =      1 
    BVD =   11.7 
    BVS =   11.7 
    VFB =     -1 
    GBMIN =  1e-12 
    RBDB =     50 
    RBPB =     50 
    RBSB =     50 
    RBPS =     50 
    RBPD =     50 
    CGSL =      0 
    CGDL =      0 
    CKAPPAS =    0.6 
    CKAPPAD =    0.6 
    CF = 1.407e-12 
    CLC =  1e-07 
    CLE =    0.6 
    DWC =      0 
    DLC = 1.193e-08 
    DLCIG =      0 
    DWJ =      0 
    VFBCV =     -1 
    ACDE =    0.4 
    MOIN =    6.9 
    NOFF =  3.404 
    VOFFCV = -0.1729 
    DMCG =      0 
    DMCI =      0 
    DMDG =      0 
    DMCGT =      0 
    XGW =      0 
    XGL =      0 
    RSHG =    0.1 
    NGCON =      1 
    TCJ = 0.000792 
    TPB = 0.001229 
    TCJSW =  1e-05 
    TPBSW =      0 
    TCJSWG =      0 
    TPBSWG =      0 
    SK0 =      0 
    SK1 =      0 
    SK2 =      0 
    SL =  2e-06 
    SW =  2e-06 
    K =      0 
    TNOM =  303.1 
    CGSO = 2.449e-10 
    CGDO = 2.449e-10 
    CGBO =  1e-13 
    XPART =      0 
    RSH =      1 
    JSS = 0.00275 
    JSWS =  6e-10 
    JSWGS =      0 
    PBS =  0.729 
    MJS =   0.44 
    PBSWS =    0.2 
    MJSWS = 0.0009 
    CJS = 0.00134 
    CJSWS = 3.674e-11 
    NJS =  1.293 
    PBSWGS = 0.9558 
    MJSWGS =    0.8 
    CJSWGS = 2.382e-10 
    XTIS =      2 
    JSD = 0.00275 
    JSWD =  6e-10 
    JSWGD =      0 
    PBD =  0.729 
    MJD =   0.44 
    PBSWD =    0.2 
    MJSWD = 0.0009 
    CJD = 0.00134 
    CJSWD = 3.674e-11 
    NJD =  1.293 
    PBSWGD = 0.9558 
    MJSWGD =    0.8 
    CJSWGD = 2.382e-10 
    XTID =      2 
    LMLT =      1 
    WMLT =      1 
    LINT = 1.193e-08 
    LL =      0 
    LLC =      0 
    LLN =      1 
    LW =      0 
    LWC =      0 
    LWN =      1 
    LWL =      0 
    LWLC =      0 
    LMIN = 1.49e-07 
    LMAX = 1.51e-07 
    WINT = 2.186e-08 
    WL =      0 
    WLC =      0 
    WLN =      1 
    WW =      0 
    WWC =      0 
    WWN =      1 
    WWL =      0 
    WWLC =      0 
    WMIN = 5.19e-07 
    WMAX = 5.21e-07 
    NOIA = 2.5e+42 
    NOIB =      0 
    NOIC =      0 
    EM = 4.1e+07 
    EF =   0.84 
    AF =      1 
    KF =      0 
    TRS =      0 
    TRD =      0 
    TEMPMOD  =      0 
    LAMBDA   =      0 
    VTL      =      0 m/s
    LC       =  5e-09 
    XN       =      3 
    LLAMBDA  =      0 
    LVTL     =      0 
    LXN      =      0 
    WLAMBDA  =      0 
    WVTL     =      0 
    WXN      =      0 
    PLAMBDA  =      0 
    PVTL     =      0 
    PXN      =      0 
    RNOIA    =   0.94 
    RNOIB    =   0.26 
    SAREF(SA0) = 1.04e-06 m
    SBREF(SB0) = 1.04e-06 m
    WLOD     =      0 m
    KU0      = -2.7e-08 1/m
    KVSAT    =    0.2 
    KVTH0    = 9.8e-09 m
    TKU0     =      0 
    LLODKU0  =      0 
    WLODKU0  =      1 
    LLODVTH  =      0 
    WLODVTH  =      1 
    LKU0     =      0 
    WKU0     =      0 
    PKU0     =      0 
    LKVTH0   =      0 
    WKVTH0   =  2e-07 
    PKVTH0   =      0 
    STK2     =      0 
    LODK2    =      1 
    STETA0   =      0 
    LODETA0  =      1 
    LXRCRG1  =      0 
    WXRCRG1  =      0 
    PXRCRG1  =      0 
    LXRCRG2  =      0 
    WXRCRG2  =      0 
    PXRCRG2  =      0 
     *** UCB's BSIM4.4.0 new diode model is activated. ***
    *** UCB's Diode Model Parameters ***
    JTSS         =      0 
    JTSSWS       =      0 
    JTSSWGS      =      0 
    JTSD         =      0 
    JTSSWD       =      0 
    JTSSWGD      =      0 
    NJTS         =     20 
    NJTSSW       =     20 
    NJTSSWG      =     20 
    XTSS         =   0.02 
    XTSSWS       =   0.02 
    XTSSWGS      =   0.02 
    XTSD         =   0.02 
    XTSSWD       =   0.02 
    XTSSWGD      =   0.02 
    TNJTS        =      0 
    TNJTSSW      =      0 
    TNJTSSWG     =      0 
    VFBSDOFF     =      0 
    LVFBSDOFF    =      0 
    WVFBSDOFF    =      0 
    PVFBSDOFF    =      0 
    LINTNOI      = -1e-07 
    VTSS         =     10 
    VTSD         =     10 
    VTSSWS       =     10 
    VTSSWD       =     10 
    VTSSWGS      =     10 
    VTSSWGD      =     10 
    TTDIOMOD     =      1 
     *** UCB's BSIM4.5.0 new model is activated. ***
    UD         =      0 
    UD1        =      0 
    UP         =      0 
    LP         =      1 
    TVOFF      =      0 
    TVFBSDOFF  =      0 
    RBPS0      =     50 
    RBPSL      =      0 
    RBPSW      =      0 
    RBPSNF     =      0 
    RBPD0      =     50 
    RBPDL      =      0 
    RBPDW      =      0 
    RBPDNF     =      0 
    RBPBX0     =    100 
    RBPBXL     =      0 
    RBPBXW     =      0 
    RBPBXNF    =      0 
    RBPBY0     =    100 
    RBPBYL     =      0 
    RBPBYW     =      0 
    RBPBYNF    =      0 
    RBSBX0     =    100 
    RBSBY0     =    100 
    RBDBX0     =    100 
    RBDBY0     =    100 
    RBSDBXL    =      0 
    RBSDBXW    =      0 
    RBSDBXNF   =      0 
    RBSDBYL    =      0 
    RBSDBYW    =      0 
    RBSDBYNF   =      0 
    LUD        =      0 
    LUD1       =      0 
    LUP        =      0 
    LLP        =      0 
    LTVOFF     =      0 
    LTVFBSDOFF =      0 
    WUD        =      0 
    WUD1       =      0 
    WUP        =      0 
    WLP        =      0 
    WTVOFF     =      0 
    WTVFBSDOFF =      0 
    PUD        =      0 
    PUD1       =      0 
    PUP        =      0 
    PLP        =      0 
    PTVOFF     =      0 
    PTVFBSDOFF =      0 
    WEB        =      0 
    WEC        =      0 
    KVTH0WE    =      0 
    K2WE       =      0 
    KU0WE      =      0 
    SCREF      =  1e-06 
    WPEMOD     =      0 
    LKVTH0WE   =      0 
    LK2WE      =      0 
    LKU0WE     =      0 
    WKVTH0WE   =      0 
    WK2WE      =      0 
    WKU0WE     =      0 
    PKVTH0WE   =      0 
    PK2WE      =      0 
    PKU0WE     =      0 
 ***************************************************************************
 ***        model parameters  model name:   0:npass.0          model type:nmos   ***
 ***************************************************************************

   *** general parameters ***
    deriv=   0.           

   ***  level 49  model parameters  ***

      hspver=    2006.03               level=         49         
     version=        3.2            paramchk=          0         
      apwarn=          1                lite=          0         
      vgslim=          0             binUnit=          2         
      capMod=          3               xpart=          0         
      mobMod=          1              nqsMod=          0         
      stiMod=          0                 elm=          0         
    sfvtflag=          0                 tox=  4.148e-09 meter   
          xj=    1.2e-07 meter       binflag=          0         
        lmin=    7.5e-08 meter          lmax=  1.505e-07 meter   
        wmin=  1.395e-07 meter          wmax=  1.405e-07 meter   
        lref=          0 meter          wref=          0 meter   
        lint=          0 meter          wint=          0 meter   
       lmult=          1               wmult=          1         
          ll=          0                 lln=          1         
          lw=          0                 lwn=          1         
         lwl=          0                  wl=          0         
         wln=          1                  ww=          0         
         wwn=          1                 wwl=          0         
         dwg=          0 m/V             dwb=          0 m/V^1/2 
          xl=          0                  xw=          0         
          a0=          1                 ags=     0.5115 V^-1    
          b0=          0 meter            b1=          0 meter   
        keta=  -0.061906 V^-1           voff=   -0.15507 V       
       ngate=      1e+23 cm^-3           vbx=          0 V       
         vbm=         -3 V                xt=   1.55e-07 meter   
        vth0=   0.677612 V               nch=1.12471e+18 cm^-3   
        nsub=      6e+16 cm^-3           nlx=          0 meter   
      gamma1=          0 V^-1/2       gamma2=          0 V^-1/2  
          k1=    0.53066 V^1/2            k2=   -0.12745         
          k3=          0                 k3b=          0 V^-1    
          w0=      1e-06 meter          dvt0=          0         
        dvt1=       0.53                dvt2=          0 V^-1    
       dvt0w=          0 meter^-1      dvt1w=      10100 meter^-1
       dvt2w=          0 V^-1           dsub=        0.5         
        eta0=     0.1168                etab=    0.00804 V^-1    
          u0=  0.0129974 m^2/V/sec         ua=-1.9925e-09 m/V     
          ub= 1.9307e-18 (m/V)^2          uc= 4.5872e-11 V^-1    
        vsat=     101250 m/sec            a1=          0 v^-1    
          a2=          1               delta=     0.0104 V       
        rdsw=    103.211 ohm-um         prwg=        0.2 V^-1    
        prwb=        0.3 V^-1/2           wr=          1         
        pclm=    0.93451             pdiblc1=          0         
     pdiblc2=   0.035291             pdiblcb=   -0.15462 V^-1    
      pscbe1= 7.8166e+08 V/m          pscbe2=      1e-20 V/m     
       drout=        0.5                pvag=          0         
     nfactor=     1.7935                cdsc=          0 f/m^2   
       cdscb=          0 f/V/m^2       cdscd=          0 f/V/m^2 
         cit=          0 f/m^2        alpha0= 0.00064059 m/V     
       beta0=       26.6 V               dlc= 1.8739e-08 meter   
         dwc=          0 meter           clc=      1e-07 meter   
         cle=        0.6                cgso=3.14944e-10 f/m     
        cgdo=3.14944e-10 f/m            cgbo=      1e-13 f/m     
        cgsl=          0 f/m            cgdl=          0 f/m     
      ckappa=        0.6                  cf= 1.4067e-12 f/m     
        acde=        0.4 m/V            moin=        6.9 V^1/2   
        toxm=  4.148e-09 m            dtoxcv=          0 m       
         vfb=    -0.9693 V            alpha1=          0 1/V     
        ijth=        0.1 A              noff=      3.621         
      voffcv=    -0.1372                 tcj=   0.000792 1/K     
       tcjsw=      1e-05 1/K          tcjswg=          0 1/K     
         tpb=  0.0012287 V/K           tpbsw=          0 V/K     
      tpbswg=          0 V/K             llc=          0         
         lwc=          0                lwlc=          0         
         wlc=          0                 wwc=          0         
        wwlc=          0                tnom=     303.15 K       
         kt1=     -0.245 V              kt1l=          0         
         kt2=   -0.01458                 ute=    -1.1259         
         ua1= 3.7209e-10 m/V             ub1=-1.3557e-19 (m/V)^2 
         uc1=  -2.31e-12 m/V^2            at=      25430 m/s     
         prt=          0         
         using Berkeley noise model       noiMod=          2         
        noia=1.87794e+20                noib=    51258.8         
        noic=-5.97434e-13                  em=    4.1e+07         
          ef=   0.843936                  af=          1         
          kf=          0              gdsnoi=-1.23457e-29         
         using Berkeley diodes          not using ACM  
         acm=        12                 hdif=         0 meter    
        ldif=         0 meter             js=   0.00275 amp/m^2  
         jsw=     6e-10 amp/m            xti=         2          
          nj=    1.2928                   cj=0.00133975 f/m^2    
          mj=      0.44                   pb=     0.729 V        
        cjsw=3.67354e-11 f/m             mjsw=    0.0009          
         php (not used)                  pbsw=       0.2 V        
      cjgate (not used)                 cjswg=2.38233e-10 f/m      
       mjswg=       0.8                pbswg=   0.95578 V        
 ***************************************************************************
 ***        model parameters  model name:   0:npd.0            model type:nmos   ***
 ***************************************************************************

   *** general parameters ***
    deriv=   0.           

   ***  level 49  model parameters  ***

      hspver=    2006.03               level=         49         
     version=        3.2            paramchk=          0         
      apwarn=          1                lite=          0         
      vgslim=          0             binUnit=          2         
      capMod=          3               xpart=          0         
      mobMod=          1              nqsMod=          0         
      stiMod=          0                 elm=          0         
    sfvtflag=          0                 tox=  4.148e-09 meter   
          xj=    1.2e-07 meter       binflag=          0         
        lmin=    7.5e-08 meter          lmax=  1.505e-07 meter   
        wmin=  2.095e-07 meter          wmax=  2.105e-07 meter   
        lref=          0 meter          wref=          0 meter   
        lint=          0 meter          wint=          0 meter   
       lmult=          1               wmult=          1         
          ll=          0                 lln=          1         
          lw=          0                 lwn=          1         
         lwl=          0                  wl=          0         
         wln=          1                  ww=          0         
         wwn=          1                 wwl=          0         
         dwg=          0 m/V             dwb=          0 m/V^1/2 
          xl=          0                  xw=          0         
          a0=       -0.1                 ags=       0.02 V^-1    
          b0=          0 meter            b1=          0 meter   
        keta=  -0.019632 V^-1           voff=     -0.139 V       
       ngate=      1e+23 cm^-3           vbx=          0 V       
         vbm=         -3 V                xt=   1.55e-07 meter   
        vth0=   0.740032 V               nch=1.12471e+18 cm^-3   
        nsub=      6e+16 cm^-3           nlx=          0 meter   
      gamma1=          0 V^-1/2       gamma2=          0 V^-1/2  
          k1=      0.498 V^1/2            k2=    -0.1068         
          k3=          0                 k3b=          0 V^-1    
          w0=          0 meter          dvt0=          0         
        dvt1=       0.53                dvt2=          0 V^-1    
       dvt0w=          0 meter^-1      dvt1w=          0 meter^-1
       dvt2w=          0 V^-1           dsub=          0         
        eta0=       0.01                etab=    -0.0042 V^-1    
          u0=  0.0229197 m^2/V/sec         ua= -1.048e-09 m/V     
          ub= 1.2106e-18 (m/V)^2          uc= 6.2252e-11 V^-1    
        vsat=      82072 m/sec            a1=          0 v^-1    
          a2=       0.99               delta=      0.023 V       
        rdsw=    187.119 ohm-um         prwg=        0.2 V^-1    
        prwb=        0.3 V^-1/2           wr=          1         
        pclm=   0.934512             pdiblc1=          0         
     pdiblc2=   0.024526             pdiblcb=  0.0557367 V^-1    
      pscbe1= 7.7384e+08 V/m          pscbe2=    9.2e-21 V/m     
       drout=          0                pvag=          0         
     nfactor=      1.078                cdsc=          0 f/m^2   
       cdscb=          0 f/V/m^2       cdscd=          0 f/V/m^2 
         cit=          0 f/m^2        alpha0=    4.1e-06 m/V     
       beta0=      17.69 V               dlc= 1.8739e-08 meter   
         dwc=          0 meter           clc=      1e-07 meter   
         cle=        0.6                cgso=3.14944e-10 f/m     
        cgdo=3.14944e-10 f/m            cgbo=      1e-13 f/m     
        cgsl=          0 f/m            cgdl=          0 f/m     
      ckappa=        0.6                  cf= 1.4067e-12 f/m     
        acde=        0.4 m/V            moin=        6.9 V^1/2   
        toxm=  4.148e-09 m            dtoxcv=          0 m       
         vfb=    -0.9693 V            alpha1=          0 1/V     
        ijth=        0.1 A              noff=      3.621         
      voffcv=    -0.1372                 tcj=   0.000792 1/K     
       tcjsw=      1e-05 1/K          tcjswg=          0 1/K     
         tpb=  0.0012287 V/K           tpbsw=          0 V/K     
      tpbswg=          0 V/K             llc=          0         
         lwc=          0                lwlc=          0         
         wlc=          0                 wwc=          0         
        wwlc=          0                tnom=     303.15 K       
         kt1=    -0.2357 V              kt1l=          0         
         kt2=      -0.02                 ute=      -1.25         
         ua1=    5.5e-10 m/V             ub1=     -2e-19 (m/V)^2 
         uc1=   -3.5e-12 m/V^2            at=      31512 m/s     
         prt=    -8.0505         
         using Berkeley noise model       noiMod=          2         
        noia=1.87794e+20                noib=    51258.8         
        noic=-5.97434e-13                  em=    4.1e+07         
          ef=   0.843936                  af=          1         
          kf=          0              gdsnoi=-1.23457e-29         
         using Berkeley diodes          not using ACM  
         acm=        12                 hdif=         0 meter    
        ldif=         0 meter             js=   0.00275 amp/m^2  
         jsw=     6e-10 amp/m            xti=         2          
          nj=    1.2928                   cj=0.00133975 f/m^2    
          mj=      0.44                   pb=     0.729 V        
        cjsw=3.67354e-11 f/m             mjsw=    0.0009          
         php (not used)                  pbsw=       0.2 V        
      cjgate (not used)                 cjswg=2.38233e-10 f/m      
       mjswg=       0.8                pbswg=   0.95578 V        
 ***************************************************************************
 ***        model parameters  model name:   0:ppu.0            model type:pmos   ***
 ***************************************************************************

   *** general parameters ***
    deriv=   0.           

   ***  level 49  model parameters  ***

      hspver=    2006.03               level=         49         
     version=        3.2            paramchk=          0         
      apwarn=          1                lite=          0         
      vgslim=          0             binUnit=          2         
      capMod=          3               xpart=          0         
      mobMod=          1              nqsMod=          0         
      stiMod=          0                 elm=          0         
    sfvtflag=          0                 tox=  4.214e-09 meter   
          xj=   1.15e-07 meter       binflag=          0         
        lmin=  1.495e-07 meter          lmax=  1.505e-07 meter   
        wmin=  1.395e-07 meter          wmax=  1.405e-07 meter   
        lref=          0 meter          wref=          0 meter   
        lint=          0 meter          wint=          0 meter   
       lmult=          1               wmult=          1         
          ll=          0                 lln=          1         
          lw=          0                 lwn=          1         
         lwl=          0                  wl=          0         
         wln=          1                  ww=          0         
         wwn=          1                 wwl=          0         
         dwg=          0 m/V             dwb=          0 m/V^1/2 
          xl=          0                  xw=          0         
          a0=     1.6572                 ags=    0.01944 V^-1    
          b0=          0 meter            b1=          0 meter   
        keta=   0.032965 V^-1           voff=   -0.17082 V       
       ngate=      1e+23 cm^-3           vbx=          0 V       
         vbm=         -3 V                xt=   1.55e-07 meter   
        vth0=  -0.878406 V               nch=7.91926e+17 cm^-3   
        nsub=      6e+16 cm^-3           nlx=          0 meter   
      gamma1=          0 V^-1/2       gamma2=          0 V^-1/2  
          k1=    0.48313 V^1/2            k2=  -0.086211         
          k3=          0                 k3b=          0 V^-1    
          w0=      1e-10 meter          dvt0=          0         
        dvt1=      1e-10                dvt2=          0 V^-1    
       dvt0w=          0 meter^-1      dvt1w=      10001 meter^-1
       dvt2w=          0 V^-1           dsub=      1e-10         
        eta0=      0.001                etab=          0 V^-1    
          u0= 0.00341192 m^2/V/sec         ua=-1.5724e-09 m/V     
          ub= 1.0206e-18 (m/V)^2          uc=-2.1234e-11 V^-1    
        vsat=     100410 m/sec            a1=          0 v^-1    
          a2=        0.4               delta=   0.071729 V       
        rdsw=    659.884 ohm-um         prwg=          0 V^-1    
        prwb=          0 V^-1/2           wr=          1         
        pclm=     2.4129             pdiblc1=          0         
     pdiblc2=  0.0238053             pdiblcb=       -0.5 V^-1    
      pscbe1= 7.0054e+08 V/m          pscbe2=      1e-20 V/m     
       drout=      1e-10                pvag=          0         
     nfactor=          2                cdsc=          0 f/m^2   
       cdscb=     0.0005 f/V/m^2       cdscd=          0 f/V/m^2 
         cit=     -0.002 f/m^2        alpha0= 1.3735e-06 m/V     
       beta0=     23.765 V               dlc=   5.67e-09 meter   
         dwc=          0 meter           clc=      1e-07 meter   
         cle=        0.6                cgso=1.34038e-10 f/m     
        cgdo=1.34038e-10 f/m            cgbo=          0 f/m     
        cgsl=9.54827e-12 f/m            cgdl=9.54827e-12 f/m     
      ckappa=        0.6                  cf=    1.2e-11 f/m     
        acde=      0.401 m/V            moin=      18.13 V^1/2   
        toxm=  4.214e-09 m            dtoxcv=          0 m       
         vfb=  -0.387269 V            alpha1=          0 1/V     
        ijth=        0.1 A              noff=        3.9         
      voffcv=   -0.10701                 tcj=  0.0012407 1/K     
       tcjsw= 0.00037357 1/K          tcjswg=      2e-12 1/K     
         tpb=  0.0020386 V/K           tpbsw=   0.001246 V/K     
      tpbswg=          0 V/K             llc=          0         
         lwc=          0                lwlc=          0         
         wlc=          0                 wwc=          0         
        wwlc=          0                tnom=     303.15 K       
         kt1=   -0.50219 V              kt1l=          0         
         kt2=  -0.048934                 ute=       -0.8         
         ua1=-4.1272e-11 m/V             ub1= 4.0968e-19 (m/V)^2 
         uc1= 1.2689e-11 m/V^2            at=     3000.3 m/s     
         prt=    0.49191         
         using Berkeley noise model       noiMod=          1         
        noia=    9.9e+18                noib=       2400         
        noic=    1.4e-12                  em=    4.1e+07         
          ef=          1                  af=          1         
          kf=          0              gdsnoi=-1.23457e-29         
         using Berkeley diodes          not using ACM  
         acm=        12                 hdif=         0 meter    
        ldif=         0 meter             js=2.1483e-05 amp/m^2  
         jsw=  8.04e-10 amp/m            xti=       5.2          
          nj=    1.3632                   cj=0.000738019 f/m^2    
          mj=   0.34629                   pb=    0.6587 V        
        cjsw=9.88889e-11 f/m             mjsw=   0.29781          
         php (not used)                  pbsw=    0.7418 V        
      cjgate (not used)                 cjswg=2.3894e-10 f/m      
       mjswg=    0.9274                pbswg=    1.4338 V        
 

 Warning: Pd = 0 is less than Weff = 1.4e-07 in BSIM3 model 0:npass.0 element m_1 with W = 1.4e-07, L = 1.5e-07

  **warning** (sram5.sp:71) Unable to find referenced node rbl; Output variable ignored. Specify a valid node.
  
      
 **info** set option symb=1 internally to help for convergence.
 *****************************************************************
 ******  option summary
 ******
 runlvl  = 3         bypass  = 2.0000    
  Opening plot unit= 15
 file=sram5.pa0

 **info** dc convergence successful at Newton-Raphson method 
 ******  
 *

 ****** operating point information tnom=  25.000 temp=  25.000 ******
 ****** operating point status is all       simulation time is     0.     
    node    =voltage      node    =voltage      node    =voltage

 +0:out1    =   1.8000  0:out2    =  70.8816n 0:out3    =   1.8000 
 +0:out4    =  70.8816n 0:rbl0    =-1.540e-28 0:rbl1    =   0.     
 +0:rwl0    =   0.      0:rwl1    =   0.      0:vdd     =   1.8000 
 +0:wbl     =   0.      0:wblb    =   0.      0:wwl     =   0.     
 +1:net_1   =   0.      1:net_2   =   0.      1:net_3   =   0.     
 +1:net_4   = 1.666e-19 2:vdd     = 1.666e-19 3:vdd     =   0.     


 maximum nodal capacitance=   9.359E-15         on node     0:vdd             

    nodal  capacitance table 

    node    =    cap      node    =    cap      node    =    cap

 +0:out1    =   3.5009f 0:out2    = 933.5500a 0:out3    =   3.5009f
 +0:out4    = 933.5500a 0:rbl0    =   2.4408f 0:rbl1    =   2.4408f
 +0:rwl0    = 187.5569a 0:rwl1    = 187.5569a 0:vdd     =   9.3587f
 +0:wbl     =  43.2491a 0:wblb    =  43.2491a 0:wwl     = 251.0909a
 +1:net_1   = 543.6343a 1:net_2   = 111.4019a 1:net_3   = 111.4019a
 +1:net_4   = 544.9193a 2:vdd     =  70.0809a 3:vdd     =  71.3659a

 

 **** voltage sources

 subckt                                                                    
 element  0:vrwl0    0:vrwl1    0:vvdd     0:vwbl     0:vwblb    0:vwwl    
  volts      0.         0.         1.8000     0.         0.         0.     
  current    0.         0.      -107.2343p    0.         0.         0.     
  power      0.         0.       193.0217p    0.         0.         0.     

     total voltage source power dissipation=  193.0217p       watts




 **** mosfets


 subckt                                                                    
 element  0:m1000    0:m1001    0:m1002    0:m1003    0:m1004    0:m1005   
 model    0:pshort.0 0:nshort.5 0:pshort.0 0:nshort.5 0:pshort.0 0:nshort.5
 region   Linear     Cutoff     Cutoff     Linear     Linear     Cutoff    
  id        -1.9130p  112.7394f  -49.1640p   51.7042p   -1.9130p  112.7394f
  ibs     -2.255e-28  1.131e-23 -2.082e-23    0.       2.255e-28  1.131e-23
  ibd      4.860e-21   -1.8002p    1.8005p -7.124e-20  4.860e-21   -1.8002p
  vgs       -1.8000  -1.540e-28   -4.7862n    1.8000    -1.8000     0.     
  vds       -4.7862n    1.8000    -1.8000    70.8816n   -4.7862n    1.8000 
  vbs        0.         0.         0.         0.         0.         0.     
  vth     -753.2087m  752.2978m -604.3726m  752.4909m -753.2087m  752.2978m
  vdsat   -764.5459m   42.9391m  -43.3463m  387.0035m -764.5459m   42.9391m
  vod       -1.0468  -752.2978m  604.3726m    1.0475    -1.0468  -752.2978m
  beta     457.6220u    1.0308m  330.9057u  788.3199u  457.6220u    1.0308m
  gam eff    1.3152   907.0735m    1.3152   907.0735m    1.3152   907.0735m
  gm         1.2735p    2.9714p    1.1809n   29.3169p    1.2735p    2.9714p
  gds      399.6906u  100.5869f  100.4201p  729.4449u  399.6906u  100.5869f
  gmb      402.0840f  800.4441f  325.9685p   11.3431p  402.0840f  800.4441f
  cdtot      1.5928f  200.2232a  311.6623a  621.8877a    1.5928f  200.2232a
  cgtot      1.9264f  448.3093a  936.6884a  771.1914a    1.9264f  448.3093a
  cstot      1.1036f  273.4425a  545.2962a  408.6600a    1.1036f  273.4425a
  cbtot      1.6316f  405.6454a    1.3988f  470.0144a    1.6316f  405.6454a
  cgs      721.6762a  130.6406a  120.1830a  316.3984a  721.6762a  130.6406a
  cgd      858.3538a  128.0515a   83.1102a  382.3774a  858.3538a  128.0515a



 subckt                         x1         x1         x1         x1        
 element  0:m1006    0:m1007    1:m_1      1:m_2      1:m_3      1:m_4     
 model    0:pshort.0 0:nshort.5 0:npass.0  0:npass.0  0:npd.0    0:npass.0 
 region   Cutoff     Linear     Cutoff     Cutoff     Cutoff     Cutoff    
  id       -49.1640p   51.7042p    0.         0.         0.         0.     
  ibs     -2.082e-23    0.         0.         0.         0.         0.     
  ibd        1.8005p -7.124e-20    0.         0.         0.         0.     
  vgs       -4.7862n    1.8000     0.      -1.666e-19  1.540e-28    0.     
  vds       -1.8000    70.8816n    0.      -1.666e-19  1.311e-28    0.     
  vbs        0.         0.         0.      -1.666e-19  1.540e-28    0.     
  vth     -604.3726m  752.4909m  681.6529m  681.6529m  743.9195m  681.6529m
  vdsat    -43.3463m  387.0035m   43.1954m   43.1954m   49.0031m   43.1954m
  vod      604.3726m    1.0475  -681.6529m -681.6529m -743.9195m -681.6529m
  beta     330.9057u  788.3199u  186.4353u  186.4353u  351.0012u  186.4353u
  gam eff    1.3152   907.0735m  777.3202m  777.3202m  704.6953m  777.3202m
  gm         1.1809n   29.3169p    0.         0.         0.         0.     
  gds      100.4201p  729.4449u    7.3617p    7.3617p  128.4175f    7.3617p
  gmb      325.9685p   11.3431p    0.         0.         0.         0.     
  cdtot    311.6623a  621.8877a   48.8671a   43.2491a   68.1528a   48.8671a
  cgtot    936.6884a  771.1914a  125.5455a  125.5455a  187.5569a  125.5455a
  cstot    545.2962a  408.6600a   43.2491a   48.8671a   66.0937a   43.2491a
  cbtot      1.3988f  470.0144a   36.3693a   36.3693a   54.4889a   36.3693a
  cgs      120.1830a  316.3984a   42.3669a   47.3766a   65.4945a   42.3669a
  cgd       83.1102a  382.3774a   47.3766a   42.3669a   67.7877a   47.3766a



 subckt   x1         x1         x1.xinvm   x1.xinvm   x1.xinv    x1.xinv   
 element  1:m_5      1:m_6      2:m_1      2:m_2      3:m_1      3:m_2     
 model    0:npd.0    0:npass.0  0:ppu.0    0:npd.0    0:ppu.0    0:npd.0   
 region   Cutoff     Cutoff     Cutoff     Cutoff     Cutoff     Cutoff    
  id         0.         0.         0.         0.         0.         0.     
  ibs        0.         0.         0.         0.         0.         0.     
  ibd        0.         0.         0.         0.         0.         0.     
  vgs        0.       1.666e-19 -1.666e-19    0.       1.666e-19  1.666e-19
  vds        0.         0.      -5.283e-23  1.666e-19    0.         0.     
  vbs        0.         0.         0.         0.         0.         0.     
  vth      743.9195m  681.6529m -886.6886m  743.9195m -886.6886m  743.9195m
  vdsat     49.0031m   43.1954m  -41.1152m   49.0031m  -41.1152m   49.0031m
  vod     -743.9195m -681.6529m  886.6886m -743.9195m  886.6886m -743.9195m
  beta     351.0012u  186.4353u   51.0387u  351.0012u   51.0387u  351.0012u
  gam eff  704.6953m  777.3202m  648.3374m  704.6953m  648.3374m  704.6953m
  gm         0.         0.         0.         0.         0.         0.     
  gds      128.4175f    7.3617p  402.1664a  128.4175f  402.1664a  128.4175f
  gmb        0.         0.         0.         0.         0.         0.     
  cdtot     66.0937a   43.2491a   22.7082a   68.1528a   21.4231a   68.1528a
  cgtot    187.5569a  125.5455a   92.0889a  187.5569a   92.0889a  187.5569a
  cstot     68.1528a   48.8671a   21.4231a   66.0937a   22.7082a   66.0937a
  cbtot     54.4889a   36.3693a   48.6577a   54.4889a   48.6577a   54.4889a
  cgs       67.7877a   47.3766a   21.3219a   65.4945a   22.3514a   65.4945a
  cgd       65.4945a   42.3669a   22.3514a   67.7877a   21.3219a   67.7877a



 ******
 *

 ****** transient analysis tnom=  25.000 temp=  25.000 ******
x

 time         voltage    voltage     voltage    voltage   
             wwl        rbl0        rbl1       rwl0       
    0.          0.      -1.5402e-28    0.         0.      
    1.00000p    0.        77.3849a    48.1655a    0.      
    2.00000p    0.       507.3822a   429.2212a    0.      
    3.00000p    0.       612.2075a   632.8050a    0.      
    4.00000p    0.       717.0327a   836.3887a    0.      
    5.00000p    0.       821.8580a     1.0400f    0.      
    6.00000p    0.       881.5880a     1.1081f    0.      
    7.00000p    0.       930.0441a     1.1423f    0.      
    8.00000p    0.       978.5003a     1.1765f    0.      
    9.00000p    0.         1.0270f     1.2107f    0.      
   10.00000p    0.         1.0754f     1.2449f    0.      
   11.00000p    0.         1.1239f     1.2791f    0.      
   12.00000p    0.         1.1723f     1.3134f    0.      
   13.00000p    0.         1.2208f     1.3476f    0.      
   14.00000p    0.         1.2692f     1.3818f    0.      
   15.00000p    0.         1.3177f     1.4160f    0.      
   16.00000p    0.         1.3387f     1.4353f    0.      
   17.00000p    0.         1.3381f     1.4428f    0.      
   18.00000p    0.         1.3375f     1.4504f    0.      
   19.00000p    0.         1.3369f     1.4579f    0.      
   20.00000p    0.         1.3363f     1.4654f    0.      
   21.00000p    0.         1.3357f     1.4730f    0.      
   22.00000p    0.         1.3351f     1.4805f    0.      
   23.00000p    0.         1.3345f     1.4881f    0.      
   24.00000p    0.         1.3339f     1.4956f    0.      
   25.00000p    0.         1.3333f     1.5031f    0.      
   26.00000p    0.         1.3327f     1.5107f    0.      
   27.00000p    0.         1.3322f     1.5182f    0.      
   28.00000p    0.         1.3316f     1.5258f    0.      
   29.00000p    0.         1.3310f     1.5333f    0.      
   30.00000p    0.         1.3304f     1.5408f    0.      
   31.00000p    0.         1.3298f     1.5484f    0.      
   32.00000p    0.         1.3292f     1.5559f    0.      
   33.00000p    0.         1.3286f     1.5635f    0.      
   34.00000p    0.         1.3280f     1.5710f    0.      
   35.00000p    0.         1.3274f     1.5785f    0.      
   36.00000p    0.         1.3268f     1.5861f    0.      
   37.00000p    0.         1.3262f     1.5936f    0.      
   38.00000p    0.         1.3256f     1.6012f    0.      
   39.00000p    0.         1.3250f     1.6087f    0.      
   40.00000p    0.         1.3244f     1.6162f    0.      
   41.00000p    0.         1.3238f     1.6238f    0.      
   42.00000p    0.         1.3233f     1.6313f    0.      
   43.00000p    0.         1.3227f     1.6389f    0.      
   44.00000p    0.         1.3221f     1.6464f    0.      
   45.00000p    0.         1.3215f     1.6539f    0.      
   46.00000p    0.         1.3209f     1.6615f    0.      
   47.00000p    0.         1.3203f     1.6690f    0.      
   48.00000p    0.         1.3197f     1.6766f    0.      
   49.00000p    0.         1.3172f     1.6783f    0.      
   50.00000p    0.         1.3143f     1.6785f    0.      
   51.00000p    0.         1.3113f     1.6787f    0.      
   52.00000p    0.         1.3083f     1.6789f    0.      
   53.00000p    0.         1.3054f     1.6791f    0.      
   54.00000p    0.         1.3024f     1.6793f    0.      
   55.00000p    0.         1.2994f     1.6795f    0.      
   56.00000p    0.         1.2965f     1.6797f    0.      
   57.00000p    0.         1.2935f     1.6799f    0.      
   58.00000p    0.         1.2905f     1.6801f    0.      
   59.00000p    0.         1.2876f     1.6803f    0.      
   60.00000p    0.         1.2846f     1.6805f    0.      
   61.00000p    0.         1.2816f     1.6807f    0.      
   62.00000p    0.         1.2787f     1.6809f    0.      
   63.00000p    0.         1.2757f     1.6811f    0.      
   64.00000p    0.         1.2727f     1.6813f    0.      
   65.00000p    0.         1.2698f     1.6816f    0.      
   66.00000p    0.         1.2668f     1.6818f    0.      
   67.00000p    0.         1.2638f     1.6820f    0.      
   68.00000p    0.         1.2609f     1.6822f    0.      
   69.00000p    0.         1.2579f     1.6824f    0.      
   70.00000p    0.         1.2549f     1.6826f    0.      
   71.00000p    0.         1.2520f     1.6828f    0.      
   72.00000p    0.         1.2490f     1.6830f    0.      
   73.00000p    0.         1.2461f     1.6832f    0.      
   74.00000p    0.         1.2431f     1.6834f    0.      
   75.00000p    0.         1.2401f     1.6836f    0.      
   76.00000p    0.         1.2372f     1.6838f    0.      
   77.00000p    0.         1.2342f     1.6840f    0.      
   78.00000p    0.         1.2312f     1.6842f    0.      
   79.00000p    0.         1.2283f     1.6844f    0.      
   80.00000p    0.         1.2253f     1.6846f    0.      
   81.00000p    0.         1.2223f     1.6848f    0.      
   82.00000p    0.         1.2194f     1.6850f    0.      
   83.00000p    0.         1.2164f     1.6852f    0.      
   84.00000p    0.         1.2134f     1.6854f    0.      
   85.00000p    0.         1.2105f     1.6856f    0.      
   86.00000p    0.         1.2075f     1.6858f    0.      
   87.00000p    0.         1.2045f     1.6860f    0.      
   88.00000p    0.         1.2016f     1.6862f    0.      
   89.00000p    0.         1.1986f     1.6865f    0.      
   90.00000p    0.         1.1956f     1.6867f    0.      
   91.00000p    0.         1.1927f     1.6869f    0.      
   92.00000p    0.         1.1897f     1.6871f    0.      
   93.00000p    0.         1.1867f     1.6873f    0.      
   94.00000p    0.         1.1838f     1.6875f    0.      
   95.00000p    0.         1.1808f     1.6877f    0.      
   96.00000p    0.         1.1778f     1.6879f    0.      
   97.00000p    0.         1.1749f     1.6881f    0.      
   98.00000p    0.         1.1719f     1.6883f    0.      
   99.00000p    0.         1.1690f     1.6885f    0.      
  100.00000p    0.         1.1660f     1.6887f    0.      
  101.00000p    0.         1.1630f     1.6889f    0.      
  102.00000p    0.         1.1601f     1.6891f    0.      
  103.00000p    0.         1.1571f     1.6893f    0.      
  104.00000p    0.         1.1541f     1.6895f    0.      
  105.00000p    0.         1.1512f     1.6897f    0.      
  106.00000p    0.         1.1482f     1.6899f    0.      
  107.00000p    0.         1.1452f     1.6901f    0.      
  108.00000p    0.         1.1423f     1.6903f    0.      
  109.00000p    0.         1.1393f     1.6905f    0.      
  110.00000p    0.         1.1363f     1.6907f    0.      
  111.00000p    0.         1.1334f     1.6909f    0.      
  112.00000p    0.         1.1304f     1.6911f    0.      
  113.00000p    0.         1.1274f     1.6913f    0.      
  114.00000p    0.         1.1245f     1.6916f    0.      
  115.00000p    0.         1.1215f     1.6918f    0.      
  116.00000p    0.         1.1185f     1.6920f    0.      
  117.00000p    0.         1.1156f     1.6922f    0.      
  118.00000p    0.         1.1126f     1.6924f    0.      
  119.00000p    0.         1.1096f     1.6926f    0.      
  120.00000p    0.         1.1067f     1.6928f    0.      
  121.00000p    0.         1.1037f     1.6930f    0.      
  122.00000p    0.         1.1008f     1.6932f    0.      
  123.00000p    0.         1.0978f     1.6934f    0.      
  124.00000p    0.         1.0948f     1.6936f    0.      
  125.00000p    0.         1.0919f     1.6938f    0.      
  126.00000p    0.         1.0889f     1.6940f    0.      
  127.00000p    0.         1.0859f     1.6942f    0.      
  128.00000p    0.         1.0830f     1.6944f    0.      
  129.00000p    0.         1.0800f     1.6946f    0.      
  130.00000p    0.         1.0770f     1.6948f    0.      
  131.00000p    0.         1.0741f     1.6950f    0.      
  132.00000p    0.         1.0711f     1.6952f    0.      
  133.00000p    0.         1.0681f     1.6954f    0.      
  134.00000p    0.         1.0652f     1.6956f    0.      
  135.00000p    0.         1.0622f     1.6958f    0.      
  136.00000p    0.         1.0592f     1.6960f    0.      
  137.00000p    0.         1.0563f     1.6962f    0.      
  138.00000p    0.         1.0533f     1.6965f    0.      
  139.00000p    0.         1.0503f     1.6967f    0.      
  140.00000p    0.         1.0474f     1.6969f    0.      
  141.00000p    0.         1.0444f     1.6971f    0.      
  142.00000p    0.         1.0414f     1.6973f    0.      
  143.00000p    0.         1.0385f     1.6975f    0.      
  144.00000p    0.         1.0355f     1.6977f    0.      
  145.00000p    0.         1.0325f     1.6979f    0.      
  146.00000p    0.         1.0296f     1.6981f    0.      
  147.00000p    0.         1.0266f     1.6983f    0.      
  148.00000p    0.         1.0237f     1.6985f    0.      
  149.00000p    0.         1.0207f     1.6987f    0.      
  150.00000p    0.         1.0177f     1.6989f    0.      
  151.00000p    0.         1.0148f     1.6991f    0.      
  152.00000p    0.         1.0118f     1.6993f    0.      
  153.00000p    0.         1.0088f     1.6995f    0.      
  154.00000p    0.         1.0063f     1.6997f    0.      
  155.00000p    0.         1.0037f     1.6998f    0.      
  156.00000p    0.         1.0012f     1.7000f    0.      
  157.00000p    0.       998.6299a     1.7001f    0.      
  158.00000p    0.       996.0883a     1.7003f    0.      
  159.00000p    0.       993.5467a     1.7004f    0.      
  160.00000p    0.       991.0051a     1.7006f    0.      
  161.00000p    0.       988.4635a     1.7007f    0.      
  162.00000p    0.       985.9219a     1.7009f    0.      
  163.00000p    0.       983.3803a     1.7010f    0.      
  164.00000p    0.       980.8387a     1.7011f    0.      
  165.00000p    0.       978.2971a     1.7013f    0.      
  166.00000p    0.       975.7555a     1.7014f    0.      
  167.00000p    0.       973.2139a     1.7016f    0.      
  168.00000p    0.       970.6724a     1.7017f    0.      
  169.00000p    0.       968.1308a     1.7019f    0.      
  170.00000p    0.       965.5892a     1.7020f    0.      
  171.00000p    0.       963.0476a     1.7022f    0.      
  172.00000p    0.       960.5060a     1.7023f    0.      
  173.00000p    0.       957.9644a     1.7025f    0.      
  174.00000p    0.       955.4228a     1.7026f    0.      
  175.00000p    0.       952.8812a     1.7028f    0.      
  176.00000p    0.       950.3396a     1.7029f    0.      
  177.00000p    0.       947.7980a     1.7031f    0.      
  178.00000p    0.       945.2564a     1.7032f    0.      
  179.00000p    0.       942.7148a     1.7034f    0.      
  180.00000p    0.       940.1732a     1.7035f    0.      
  181.00000p    0.       937.6316a     1.7037f    0.      
  182.00000p    0.       935.0900a     1.7038f    0.      
  183.00000p    0.       932.5484a     1.7040f    0.      
  184.00000p    0.       930.0068a     1.7041f    0.      
  185.00000p    0.       927.4652a     1.7043f    0.      
  186.00000p    0.       924.9236a     1.7044f    0.      
  187.00000p    0.       922.3820a     1.7046f    0.      
  188.00000p    0.       919.8404a     1.7047f    0.      
  189.00000p    0.       917.2988a     1.7049f    0.      
  190.00000p    0.       914.7573a     1.7050f    0.      
  191.00000p    0.       912.2157a     1.7051f    0.      
  192.00000p    0.       909.6741a     1.7053f    0.      
  193.00000p    0.       907.1325a     1.7054f    0.      
  194.00000p    0.       904.5909a     1.7056f    0.      
  195.00000p    0.       902.0493a     1.7057f    0.      
  196.00000p    0.       899.5077a     1.7059f    0.      
  197.00000p    0.       896.9661a     1.7060f    0.      
  198.00000p    0.       894.4245a     1.7062f    0.      
  199.00000p    0.       891.8829a     1.7063f    0.      
  200.00000p    0.       889.3413a     1.7065f    0.      
  201.00000p    0.       886.7997a     1.7066f    0.      
  202.00000p    0.       884.2581a     1.7068f    0.      
  203.00000p    0.       881.7165a     1.7069f    0.      
  204.00000p    0.       879.1749a     1.7071f    0.      
  205.00000p    0.       876.6333a     1.7072f    0.      
  206.00000p    0.       874.0917a     1.7074f    0.      
  207.00000p    0.       871.5501a     1.7075f    0.      
  208.00000p    0.       869.0085a     1.7077f    0.      
  209.00000p    0.       866.4669a     1.7078f    0.      
  210.00000p    0.       863.9253a     1.7080f    0.      
  211.00000p    0.       861.3837a     1.7081f    0.      
  212.00000p    0.       858.8422a     1.7083f    0.      
  213.00000p    0.       856.3006a     1.7084f    0.      
  214.00000p    0.       853.7590a     1.7086f    0.      
  215.00000p    0.       851.2174a     1.7087f    0.      
  216.00000p    0.       848.6758a     1.7089f    0.      
  217.00000p    0.       846.1342a     1.7090f    0.      
  218.00000p    0.       843.5926a     1.7092f    0.      
  219.00000p    0.       841.0510a     1.7093f    0.      
  220.00000p    0.       838.5094a     1.7094f    0.      
  221.00000p    0.       835.9678a     1.7096f    0.      
  222.00000p    0.       833.4262a     1.7097f    0.      
  223.00000p    0.       830.8846a     1.7099f    0.      
  224.00000p    0.       828.3430a     1.7100f    0.      
  225.00000p    0.       825.8014a     1.7102f    0.      
  226.00000p    0.       823.2598a     1.7103f    0.      
  227.00000p    0.       820.7182a     1.7105f    0.      
  228.00000p    0.       818.1766a     1.7106f    0.      
  229.00000p    0.       815.6350a     1.7108f    0.      
  230.00000p    0.       813.0934a     1.7109f    0.      
  231.00000p    0.       810.5518a     1.7111f    0.      
  232.00000p    0.       808.0102a     1.7112f    0.      
  233.00000p    0.       805.4686a     1.7114f    0.      
  234.00000p    0.       802.9271a     1.7115f    0.      
  235.00000p    0.       800.3855a     1.7117f    0.      
  236.00000p    0.       797.8439a     1.7118f    0.      
  237.00000p    0.       795.3023a     1.7120f    0.      
  238.00000p    0.       792.7607a     1.7121f    0.      
  239.00000p    0.       790.2191a     1.7123f    0.      
  240.00000p    0.       787.6775a     1.7124f    0.      
  241.00000p    0.       785.1359a     1.7126f    0.      
  242.00000p    0.       782.5943a     1.7127f    0.      
  243.00000p    0.       780.0527a     1.7129f    0.      
  244.00000p    0.       777.5111a     1.7130f    0.      
  245.00000p    0.       774.9695a     1.7132f    0.      
  246.00000p    0.       772.4279a     1.7133f    0.      
  247.00000p    0.       769.8863a     1.7134f    0.      
  248.00000p    0.       767.3447a     1.7136f    0.      
  249.00000p    0.       764.8031a     1.7137f    0.      
  250.00000p    0.       762.2615a     1.7139f    0.      
  251.00000p    0.       759.7199a     1.7140f    0.      
  252.00000p    0.       757.1783a     1.7142f    0.      
  253.00000p    0.       754.6367a     1.7143f    0.      
  254.00000p    0.       752.0951a     1.7145f    0.      
  255.00000p    0.       749.5535a     1.7146f    0.      
  256.00000p    0.       747.0120a     1.7148f    0.      
  257.00000p    0.       744.4704a     1.7149f    0.      
  258.00000p    0.       741.9288a     1.7151f    0.      
  259.00000p    0.       739.3872a     1.7152f    0.      
  260.00000p    0.       736.8456a     1.7154f    0.      
  261.00000p    0.       734.3040a     1.7155f    0.      
  262.00000p    0.       731.7624a     1.7157f    0.      
  263.00000p    0.       729.2208a     1.7158f    0.      
  264.00000p    0.       726.6792a     1.7160f    0.      
  265.00000p    0.       724.1376a     1.7161f    0.      
  266.00000p    0.       721.5960a     1.7163f    0.      
  267.00000p    0.       719.0544a     1.7164f    0.      
  268.00000p    0.       716.5128a     1.7166f    0.      
  269.00000p    0.       713.9712a     1.7167f    0.      
  270.00000p    0.       711.4296a     1.7169f    0.      
  271.00000p    0.       708.8880a     1.7170f    0.      
  272.00000p    0.       706.3464a     1.7172f    0.      
  273.00000p    0.       703.8048a     1.7173f    0.      
  274.00000p    0.       701.2632a     1.7175f    0.      
  275.00000p    0.       698.7216a     1.7176f    0.      
  276.00000p    0.       696.1800a     1.7177f    0.      
  277.00000p    0.       693.6384a     1.7179f    0.      
  278.00000p    0.       691.0969a     1.7180f    0.      
  279.00000p    0.       688.5553a     1.7182f    0.      
  280.00000p    0.       686.0137a     1.7183f    0.      
  281.00000p    0.       683.4721a     1.7185f    0.      
  282.00000p    0.       680.9305a     1.7186f    0.      
  283.00000p    0.       678.3889a     1.7188f    0.      
  284.00000p    0.       675.8473a     1.7189f    0.      
  285.00000p    0.       673.3057a     1.7191f    0.      
  286.00000p    0.       670.7641a     1.7192f    0.      
  287.00000p    0.       668.2225a     1.7194f    0.      
  288.00000p    0.       665.6809a     1.7195f    0.      
  289.00000p    0.       663.1393a     1.7197f    0.      
  290.00000p    0.       660.5977a     1.7198f    0.      
  291.00000p    0.       658.0561a     1.7200f    0.      
  292.00000p    0.       655.5145a     1.7201f    0.      
  293.00000p    0.       652.9729a     1.7203f    0.      
  294.00000p    0.       650.4313a     1.7204f    0.      
  295.00000p    0.       647.8897a     1.7206f    0.      
  296.00000p    0.       645.3481a     1.7207f    0.      
  297.00000p    0.       642.8065a     1.7209f    0.      
  298.00000p    0.       640.2649a     1.7210f    0.      
  299.00000p    0.       637.7233a     1.7212f    0.      
  300.00000p    0.       635.1818a     1.7213f    0.      
  301.00000p    0.       632.6402a     1.7215f    0.      
  302.00000p    0.       630.0986a     1.7216f    0.      
  303.00000p    0.       627.5570a     1.7218f    0.      
  304.00000p    0.       625.0154a     1.7219f    0.      
  305.00000p    0.       622.4738a     1.7220f    0.      
  306.00000p    0.       619.9322a     1.7222f    0.      
  307.00000p    0.       617.3906a     1.7223f    0.      
  308.00000p    0.       614.8490a     1.7225f    0.      
  309.00000p    0.       612.3074a     1.7226f    0.      
  310.00000p    0.       609.7658a     1.7228f    0.      
  311.00000p    0.       607.2242a     1.7229f    0.      
  312.00000p    0.       604.6826a     1.7231f    0.      
  313.00000p    0.       602.1410a     1.7232f    0.      
  314.00000p    0.       599.5994a     1.7234f    0.      
  315.00000p    0.       597.0578a     1.7235f    0.      
  316.00000p    0.       594.5162a     1.7237f    0.      
  317.00000p    0.       591.9746a     1.7238f    0.      
  318.00000p    0.       589.4330a     1.7240f    0.      
  319.00000p    0.       586.8914a     1.7241f    0.      
  320.00000p    0.       584.3498a     1.7243f    0.      
  321.00000p    0.       581.8082a     1.7244f    0.      
  322.00000p    0.       579.2667a     1.7246f    0.      
  323.00000p    0.       576.7251a     1.7247f    0.      
  324.00000p    0.       574.1835a     1.7249f    0.      
  325.00000p    0.       571.6419a     1.7250f    0.      
  326.00000p    0.       569.1003a     1.7252f    0.      
  327.00000p    0.       566.5587a     1.7253f    0.      
  328.00000p    0.       564.0171a     1.7255f    0.      
  329.00000p    0.       561.4755a     1.7256f    0.      
  330.00000p    0.       558.9339a     1.7258f    0.      
  331.00000p    0.       556.3923a     1.7259f    0.      
  332.00000p    0.       553.8507a     1.7260f    0.      
  333.00000p    0.       551.3091a     1.7262f    0.      
  334.00000p    0.       548.7675a     1.7263f    0.      
  335.00000p    0.       546.2259a     1.7265f    0.      
  336.00000p    0.       543.6843a     1.7266f    0.      
  337.00000p    0.       541.1427a     1.7268f    0.      
  338.00000p    0.       538.6011a     1.7269f    0.      
  339.00000p    0.       536.0595a     1.7271f    0.      
  340.00000p    0.       533.5179a     1.7272f    0.      
  341.00000p    0.       530.9763a     1.7274f    0.      
  342.00000p    0.       528.4347a     1.7275f    0.      
  343.00000p    0.       525.8931a     1.7277f    0.      
  344.00000p    0.       523.3516a     1.7278f    0.      
  345.00000p    0.       520.8100a     1.7280f    0.      
  346.00000p    0.       518.2684a     1.7281f    0.      
  347.00000p    0.       515.7268a     1.7283f    0.      
  348.00000p    0.       513.1852a     1.7284f    0.      
  349.00000p    0.       510.6436a     1.7286f    0.      
  350.00000p    0.       508.1020a     1.7287f    0.      
  351.00000p    0.       505.5604a     1.7289f    0.      
  352.00000p    0.       503.0188a     1.7290f    0.      
  353.00000p    0.       500.4772a     1.7292f    0.      
  354.00000p    0.       497.9356a     1.7293f    0.      
  355.00000p    0.       495.3940a     1.7295f    0.      
  356.00000p    0.       492.8524a     1.7296f    0.      
  357.00000p    0.       490.3108a     1.7298f    0.      
  358.00000p    0.       487.7692a     1.7299f    0.      
  359.00000p    0.       485.2276a     1.7301f    0.      
  360.00000p    0.       482.6860a     1.7302f    0.      
  361.00000p    0.       480.1444a     1.7303f    0.      
  362.00000p    0.       477.6028a     1.7305f    0.      
  363.00000p    0.       475.0612a     1.7306f    0.      
  364.00000p    0.       472.5196a     1.7308f    0.      
  365.00000p    0.       469.9780a     1.7309f    0.      
  366.00000p    0.       467.4365a     1.7311f    0.      
  367.00000p    0.       464.8949a     1.7312f    0.      
  368.00000p    0.       462.3533a     1.7314f    0.      
  369.00000p    0.       459.8117a     1.7315f    0.      
  370.00000p    0.       457.2701a     1.7317f    0.      
  371.00000p    0.       454.7285a     1.7318f    0.      
  372.00000p    0.       452.1869a     1.7320f    0.      
  373.00000p    0.       449.6453a     1.7321f    0.      
  374.00000p    0.       447.1037a     1.7323f    0.      
  375.00000p    0.       444.5621a     1.7324f    0.      
  376.00000p    0.       442.0205a     1.7326f    0.      
  377.00000p    0.       439.4789a     1.7327f    0.      
  378.00000p    0.       436.9373a     1.7329f    0.      
  379.00000p    0.       434.3957a     1.7330f    0.      
  380.00000p    0.       431.8541a     1.7332f    0.      
  381.00000p    0.       429.3125a     1.7333f    0.      
  382.00000p    0.       426.7709a     1.7335f    0.      
  383.00000p    0.       424.2293a     1.7336f    0.      
  384.00000p    0.       421.6877a     1.7338f    0.      
  385.00000p    0.       419.1461a     1.7339f    0.      
  386.00000p    0.       416.6045a     1.7341f    0.      
  387.00000p    0.       414.0629a     1.7342f    0.      
  388.00000p    0.       411.5214a     1.7344f    0.      
  389.00000p    0.       408.9798a     1.7345f    0.      
  390.00000p    0.       406.4382a     1.7346f    0.      
  391.00000p    0.       403.8966a     1.7348f    0.      
  392.00000p    0.       401.3550a     1.7349f    0.      
  393.00000p    0.       398.8134a     1.7351f    0.      
  394.00000p    0.       396.2718a     1.7352f    0.      
  395.00000p    0.       393.7302a     1.7354f    0.      
  396.00000p    0.       391.1886a     1.7355f    0.      
  397.00000p    0.       388.6470a     1.7357f    0.      
  398.00000p    0.       386.1054a     1.7358f    0.      
  399.00000p    0.       383.5638a     1.7360f    0.      
  400.00000p    0.       381.0222a     1.7361f    0.      
  401.00000p    0.       378.4806a     1.7363f    0.      
  402.00000p    0.       375.9390a     1.7364f    0.      
  403.00000p    0.       373.3974a     1.7366f    0.      
  404.00000p    0.       370.8558a     1.7367f    0.      
  405.00000p    0.       368.3142a     1.7369f    0.      
  406.00000p    0.       365.7726a     1.7370f    0.      
  407.00000p    0.       363.2310a     1.7372f    0.      
  408.00000p    0.       360.6894a     1.7373f    0.      
  409.00000p    0.       358.1479a     1.7375f    0.      
  410.00000p    0.       355.6063a     1.7376f    0.      
  411.00000p    0.       353.0647a     1.7378f    0.      
  412.00000p    0.       350.5231a     1.7379f    0.      
  413.00000p    0.       347.9815a     1.7381f    0.      
  414.00000p    0.       345.4399a     1.7382f    0.      
  415.00000p    0.       342.8983a     1.7384f    0.      
  416.00000p    0.       340.3567a     1.7385f    0.      
  417.00000p    0.       337.8151a     1.7386f    0.      
  418.00000p    0.       335.2735a     1.7388f    0.      
  419.00000p    0.       332.7319a     1.7389f    0.      
  420.00000p    0.       330.1903a     1.7391f    0.      
  421.00000p    0.       327.6487a     1.7392f    0.      
  422.00000p    0.       325.1071a     1.7394f    0.      
  423.00000p    0.       322.5655a     1.7395f    0.      
  424.00000p    0.       320.0239a     1.7397f    0.      
  425.00000p    0.       317.4823a     1.7398f    0.      
  426.00000p    0.       314.9407a     1.7400f    0.      
  427.00000p    0.       312.3991a     1.7401f    0.      
  428.00000p    0.       309.8575a     1.7403f    0.      
  429.00000p    0.       307.3159a     1.7404f    0.      
  430.00000p    0.       304.7743a     1.7406f    0.      
  431.00000p    0.       302.2328a     1.7407f    0.      
  432.00000p    0.       299.6912a     1.7409f    0.      
  433.00000p    0.       297.1496a     1.7410f    0.      
  434.00000p    0.       294.6080a     1.7412f    0.      
  435.00000p    0.       292.0664a     1.7413f    0.      
  436.00000p    0.       289.5248a     1.7415f    0.      
  437.00000p    0.       286.9832a     1.7416f    0.      
  438.00000p    0.       284.4416a     1.7418f    0.      
  439.00000p    0.       281.9000a     1.7419f    0.      
  440.00000p    0.       279.3584a     1.7421f    0.      
  441.00000p    0.       276.8168a     1.7422f    0.      
  442.00000p    0.       274.2752a     1.7424f    0.      
  443.00000p    0.       271.7336a     1.7425f    0.      
  444.00000p    0.       269.1920a     1.7427f    0.      
  445.00000p    0.       266.6504a     1.7428f    0.      
  446.00000p    0.       264.1088a     1.7429f    0.      
  447.00000p    0.       261.5672a     1.7431f    0.      
  448.00000p    0.       259.0256a     1.7432f    0.      
  449.00000p    0.       256.4840a     1.7434f    0.      
  450.00000p    0.       253.9424a     1.7435f    0.      
  451.00000p    0.       251.4008a     1.7437f    0.      
  452.00000p    0.       248.8592a     1.7438f    0.      
  453.00000p    0.       246.3177a     1.7440f    0.      
  454.00000p    0.       243.7761a     1.7441f    0.      
  455.00000p    0.       241.2345a     1.7443f    0.      
  456.00000p    0.       238.6929a     1.7444f    0.      
  457.00000p    0.       236.1513a     1.7446f    0.      
  458.00000p    0.       233.6097a     1.7447f    0.      
  459.00000p    0.       231.0681a     1.7449f    0.      
  460.00000p    0.       228.5265a     1.7450f    0.      
  461.00000p    0.       225.9849a     1.7452f    0.      
  462.00000p    0.       223.4433a     1.7453f    0.      
  463.00000p    0.       220.9017a     1.7455f    0.      
  464.00000p    0.       218.3601a     1.7456f    0.      
  465.00000p    0.       215.8185a     1.7458f    0.      
  466.00000p    0.       213.2769a     1.7459f    0.      
  467.00000p    0.       210.7353a     1.7461f    0.      
  468.00000p    0.       208.1937a     1.7462f    0.      
  469.00000p    0.       205.6521a     1.7464f    0.      
  470.00000p    0.       203.1105a     1.7465f    0.      
  471.00000p    0.       200.5689a     1.7467f    0.      
  472.00000p    0.       198.0273a     1.7468f    0.      
  473.00000p    0.       195.4857a     1.7470f    0.      
  474.00000p    0.       192.9441a     1.7471f    0.      
  475.00000p    0.       190.4026a     1.7472f    0.      
  476.00000p    0.       187.8610a     1.7474f    0.      
  477.00000p    0.       185.3194a     1.7475f    0.      
  478.00000p    0.       182.7778a     1.7477f    0.      
  479.00000p    0.       180.2362a     1.7478f    0.      
  480.00000p    0.       177.6946a     1.7480f    0.      
  481.00000p    0.       175.1530a     1.7481f    0.      
  482.00000p    0.       172.6114a     1.7483f    0.      
  483.00000p    0.       170.0698a     1.7484f    0.      
  484.00000p    0.       167.5282a     1.7486f    0.      
  485.00000p    0.       164.9866a     1.7487f    0.      
  486.00000p    0.       162.4450a     1.7489f    0.      
  487.00000p    0.       159.9034a     1.7490f    0.      
  488.00000p    0.       157.3618a     1.7492f    0.      
  489.00000p    0.       156.1753a     1.7493f    0.      
  490.00000p    0.       157.1076a     1.7494f    0.      
  491.00000p    0.       158.0400a     1.7496f    0.      
  492.00000p    0.       158.9723a     1.7497f    0.      
  493.00000p    0.       159.9046a     1.7498f    0.      
  494.00000p    0.       160.8369a     1.7500f    0.      
  495.00000p    0.       161.7693a     1.7501f    0.      
  496.00000p    0.       162.7016a     1.7502f    0.      
  497.00000p    0.       163.6339a     1.7504f    0.      
  498.00000p    0.       164.5662a     1.7505f    0.      
  499.00000p    0.       165.4986a     1.7506f    0.      
  500.00000p    0.       166.4309a     1.7508f    0.      
  501.00000p    0.       167.3632a     1.7509f    0.      
  502.00000p    0.       168.2955a     1.7510f    0.      
  503.00000p    0.       169.2279a     1.7512f    0.      
  504.00000p    0.       170.1602a     1.7513f    0.      
  505.00000p    0.       171.0925a     1.7514f    0.      
  506.00000p    0.       172.0248a     1.7516f    0.      
  507.00000p    0.       172.9571a     1.7517f    0.      
  508.00000p    0.       173.8895a     1.7518f    0.      
  509.00000p    0.       174.8218a     1.7519f    0.      
  510.00000p    0.       175.7541a     1.7521f    0.      
  511.00000p    0.       176.6864a     1.7522f    0.      
  512.00000p    0.       177.6188a     1.7523f    0.      
  513.00000p    0.       178.5511a     1.7525f    0.      
  514.00000p    0.       179.4834a     1.7526f    0.      
  515.00000p    0.       180.4157a     1.7527f    0.      
  516.00000p    0.       181.3481a     1.7529f    0.      
  517.00000p    0.       182.2804a     1.7530f    0.      
  518.00000p    0.       183.2127a     1.7531f    0.      
  519.00000p    0.       184.1450a     1.7533f    0.      
  520.00000p    0.       185.0774a     1.7534f    0.      
  521.00000p    0.       186.0097a     1.7535f    0.      
  522.00000p    0.       186.9420a     1.7537f    0.      
  523.00000p    0.       187.8743a     1.7538f    0.      
  524.00000p    0.       188.8067a     1.7539f    0.      
  525.00000p    0.       189.7390a     1.7540f    0.      
  526.00000p    0.       190.6713a     1.7542f    0.      
  527.00000p    0.       191.6036a     1.7543f    0.      
  528.00000p    0.       192.5359a     1.7544f    0.      
  529.00000p    0.       193.4683a     1.7546f    0.      
  530.00000p    0.       194.4006a     1.7547f    0.      
  531.00000p    0.       195.3329a     1.7548f    0.      
  532.00000p    0.       196.2652a     1.7550f    0.      
  533.00000p    0.       197.1976a     1.7551f    0.      
  534.00000p    0.       198.1299a     1.7552f    0.      
  535.00000p    0.       199.0622a     1.7554f    0.      
  536.00000p    0.       199.9945a     1.7555f    0.      
  537.00000p    0.       200.9269a     1.7556f    0.      
  538.00000p    0.       201.8592a     1.7558f    0.      
  539.00000p    0.       202.7915a     1.7559f    0.      
  540.00000p    0.       203.7238a     1.7560f    0.      
  541.00000p    0.       204.6562a     1.7562f    0.      
  542.00000p    0.       205.5885a     1.7563f    0.      
  543.00000p    0.       206.5208a     1.7564f    0.      
  544.00000p    0.       207.4531a     1.7565f    0.      
  545.00000p    0.       208.3855a     1.7567f    0.      
  546.00000p    0.       209.3178a     1.7568f    0.      
  547.00000p    0.       210.2501a     1.7569f    0.      
  548.00000p    0.       211.1824a     1.7571f    0.      
  549.00000p    0.       212.1147a     1.7572f    0.      
  550.00000p    0.       213.0471a     1.7573f    0.      
  551.00000p    0.       213.9794a     1.7575f    0.      
  552.00000p    0.       214.9117a     1.7576f    0.      
  553.00000p    0.       215.8440a     1.7577f    0.      
  554.00000p    0.       216.7764a     1.7579f    0.      
  555.00000p    0.       217.7087a     1.7580f    0.      
  556.00000p    0.       218.6410a     1.7581f    0.      
  557.00000p    0.       219.5733a     1.7583f    0.      
  558.00000p    0.       220.5057a     1.7584f    0.      
  559.00000p    0.       221.4380a     1.7585f    0.      
  560.00000p    0.       222.3703a     1.7586f    0.      
  561.00000p    0.       223.3026a     1.7588f    0.      
  562.00000p    0.       224.2350a     1.7589f    0.      
  563.00000p    0.       225.1673a     1.7590f    0.      
  564.00000p    0.       226.0996a     1.7592f    0.      
  565.00000p    0.       227.0319a     1.7593f    0.      
  566.00000p    0.       227.9643a     1.7594f    0.      
  567.00000p    0.       228.8966a     1.7596f    0.      
  568.00000p    0.       229.8289a     1.7597f    0.      
  569.00000p    0.       230.7612a     1.7598f    0.      
  570.00000p    0.       231.6935a     1.7600f    0.      
  571.00000p    0.       232.6259a     1.7601f    0.      
  572.00000p    0.       233.5582a     1.7602f    0.      
  573.00000p    0.       234.4905a     1.7604f    0.      
  574.00000p    0.       235.4228a     1.7605f    0.      
  575.00000p    0.       236.3552a     1.7606f    0.      
  576.00000p    0.       237.2875a     1.7608f    0.      
  577.00000p    0.       238.2198a     1.7609f    0.      
  578.00000p    0.       239.1521a     1.7610f    0.      
  579.00000p    0.       240.0845a     1.7611f    0.      
  580.00000p    0.       241.0168a     1.7613f    0.      
  581.00000p    0.       241.9491a     1.7614f    0.      
[...]
   29.28700n    1.8000  
   29.28800n    1.8000  
   29.28900n    1.8000  
   29.29000n    1.8000  
   29.29100n    1.8000  
   29.29200n    1.8000  
   29.29300n    1.8000  
   29.29400n    1.8000  
   29.29500n    1.8000  
   29.29600n    1.8000  
   29.29700n    1.8000  
   29.29800n    1.8000  
   29.29900n    1.8000  
   29.30000n    1.8000  
   29.30100n    1.8000  
   29.30200n    1.8000  
   29.30300n    1.8000  
   29.30400n    1.8000  
   29.30500n    1.8000  
   29.30600n    1.8000  
   29.30700n    1.8000  
   29.30800n    1.8000  
   29.30900n    1.8000  
   29.31000n    1.8000  
   29.31100n    1.8000  
   29.31200n    1.8000  
   29.31300n    1.8000  
   29.31400n    1.8000  
   29.31500n    1.8000  
   29.31600n    1.8000  
   29.31700n    1.8000  
   29.31800n    1.8000  
   29.31900n    1.8000  
   29.32000n    1.8000  
   29.32100n    1.8000  
   29.32200n    1.8000  
   29.32300n    1.8000  
   29.32400n    1.8000  
   29.32500n    1.8000  
   29.32600n    1.8000  
   29.32700n    1.8000  
   29.32800n    1.8000  
   29.32900n    1.8000  
   29.33000n    1.8000  
   29.33100n    1.8000  
   29.33200n    1.8000  
   29.33300n    1.8000  
   29.33400n    1.8000  
   29.33500n    1.8000  
   29.33600n    1.8000  
   29.33700n    1.8000  
   29.33800n    1.8000  
   29.33900n    1.8000  
   29.34000n    1.8000  
   29.34100n    1.8000  
   29.34200n    1.8000  
   29.34300n    1.8000  
   29.34400n    1.8000  
   29.34500n    1.8000  
   29.34600n    1.8000  
   29.34700n    1.8000  
   29.34800n    1.8000  
   29.34900n    1.8000  
   29.35000n    1.8000  
   29.35100n    1.8000  
   29.35200n    1.8000  
   29.35300n    1.8000  
   29.35400n    1.8000  
   29.35500n    1.8000  
   29.35600n    1.8000  
   29.35700n    1.8000  
   29.35800n    1.8000  
   29.35900n    1.8000  
   29.36000n    1.8000  
   29.36100n    1.8000  
   29.36200n    1.8000  
   29.36300n    1.8000  
   29.36400n    1.8000  
   29.36500n    1.8000  
   29.36600n    1.8000  
   29.36700n    1.8000  
   29.36800n    1.8000  
   29.36900n    1.8000  
   29.37000n    1.8000  
   29.37100n    1.8000  
   29.37200n    1.8000  
   29.37300n    1.8000  
   29.37400n    1.8000  
   29.37500n    1.8000  
   29.37600n    1.8000  
   29.37700n    1.8000  
   29.37800n    1.8000  
   29.37900n    1.8000  
   29.38000n    1.8000  
   29.38100n    1.8000  
   29.38200n    1.8000  
   29.38300n    1.8000  
   29.38400n    1.8000  
   29.38500n    1.8000  
   29.38600n    1.8000  
   29.38700n    1.8000  
   29.38800n    1.8000  
   29.38900n    1.8000  
   29.39000n    1.8000  
   29.39100n    1.8000  
   29.39200n    1.8000  
   29.39300n    1.8000  
   29.39400n    1.8000  
   29.39500n    1.8000  
   29.39600n    1.8000  
   29.39700n    1.8000  
   29.39800n    1.8000  
   29.39900n    1.8000  
   29.40000n    1.8000  
   29.40100n    1.8000  
   29.40200n    1.8000  
   29.40300n    1.8000  
   29.40400n    1.8000  
   29.40500n    1.8000  
   29.40600n    1.8000  
   29.40700n    1.8000  
   29.40800n    1.8000  
   29.40900n    1.8000  
   29.41000n    1.8000  
   29.41100n    1.8000  
   29.41200n    1.8000  
   29.41300n    1.8000  
   29.41400n    1.8000  
   29.41500n    1.8000  
   29.41600n    1.8000  
   29.41700n    1.8000  
   29.41800n    1.8000  
   29.41900n    1.8000  
   29.42000n    1.8000  
   29.42100n    1.8000  
   29.42200n    1.8000  
   29.42300n    1.8000  
   29.42400n    1.8000  
   29.42500n    1.8000  
   29.42600n    1.8000  
   29.42700n    1.8000  
   29.42800n    1.8000  
   29.42900n    1.8000  
   29.43000n    1.8000  
   29.43100n    1.8000  
   29.43200n    1.8000  
   29.43300n    1.8000  
   29.43400n    1.8000  
   29.43500n    1.8000  
   29.43600n    1.8000  
   29.43700n    1.8000  
   29.43800n    1.8000  
   29.43900n    1.8000  
   29.44000n    1.8000  
   29.44100n    1.8000  
   29.44200n    1.8000  
   29.44300n    1.8000  
   29.44400n    1.8000  
   29.44500n    1.8000  
   29.44600n    1.8000  
   29.44700n    1.8000  
   29.44800n    1.8000  
   29.44900n    1.8000  
   29.45000n    1.8000  
   29.45100n    1.8000  
   29.45200n    1.8000  
   29.45300n    1.8000  
   29.45400n    1.8000  
   29.45500n    1.8000  
   29.45600n    1.8000  
   29.45700n    1.8000  
   29.45800n    1.8000  
   29.45900n    1.8000  
   29.46000n    1.8000  
   29.46100n    1.8000  
   29.46200n    1.8000  
   29.46300n    1.8000  
   29.46400n    1.8000  
   29.46500n    1.8000  
   29.46600n    1.8000  
   29.46700n    1.8000  
   29.46800n    1.8000  
   29.46900n    1.8000  
   29.47000n    1.8000  
   29.47100n    1.8000  
   29.47200n    1.8000  
   29.47300n    1.8000  
   29.47400n    1.8000  
   29.47500n    1.8000  
   29.47600n    1.8000  
   29.47700n    1.8000  
   29.47800n    1.8000  
   29.47900n    1.8000  
   29.48000n    1.8000  
   29.48100n    1.8000  
   29.48200n    1.8000  
   29.48300n    1.8000  
   29.48400n    1.8000  
   29.48500n    1.8000  
   29.48600n    1.8000  
   29.48700n    1.8000  
   29.48800n    1.8000  
   29.48900n    1.8000  
   29.49000n    1.8000  
   29.49100n    1.8000  
   29.49200n    1.8000  
   29.49300n    1.8000  
   29.49400n    1.8000  
   29.49500n    1.8000  
   29.49600n    1.8000  
   29.49700n    1.8000  
   29.49800n    1.8000  
   29.49900n    1.8000  
   29.50000n    1.8000  
   29.50100n    1.8000  
   29.50200n    1.8000  
   29.50300n    1.8000  
   29.50400n    1.8000  
   29.50500n    1.8000  
   29.50600n    1.8000  
   29.50700n    1.8000  
   29.50800n    1.8000  
   29.50900n    1.8000  
   29.51000n    1.8000  
   29.51100n    1.8000  
   29.51200n    1.8000  
   29.51300n    1.8000  
   29.51400n    1.8000  
   29.51500n    1.8000  
   29.51600n    1.8000  
   29.51700n    1.8000  
   29.51800n    1.8000  
   29.51900n    1.8000  
   29.52000n    1.8000  
   29.52100n    1.8000  
   29.52200n    1.8000  
   29.52300n    1.8000  
   29.52400n    1.8000  
   29.52500n    1.8000  
   29.52600n    1.8000  
   29.52700n    1.8000  
   29.52800n    1.8000  
   29.52900n    1.8000  
   29.53000n    1.8000  
   29.53100n    1.8000  
   29.53200n    1.8000  
   29.53300n    1.8000  
   29.53400n    1.8000  
   29.53500n    1.8000  
   29.53600n    1.8000  
   29.53700n    1.8000  
   29.53800n    1.8000  
   29.53900n    1.8000  
   29.54000n    1.8000  
   29.54100n    1.8000  
   29.54200n    1.8000  
   29.54300n    1.8000  
   29.54400n    1.8000  
   29.54500n    1.8000  
   29.54600n    1.8000  
   29.54700n    1.8000  
   29.54800n    1.8000  
   29.54900n    1.8000  
   29.55000n    1.8000  
   29.55100n    1.8000  
   29.55200n    1.8000  
   29.55300n    1.8000  
   29.55400n    1.8000  
   29.55500n    1.8000  
   29.55600n    1.8000  
   29.55700n    1.8000  
   29.55800n    1.8000  
   29.55900n    1.8000  
   29.56000n    1.8000  
   29.56100n    1.8000  
   29.56200n    1.8000  
   29.56300n    1.8000  
   29.56400n    1.8000  
   29.56500n    1.8000  
   29.56600n    1.8000  
   29.56700n    1.8000  
   29.56800n    1.8000  
   29.56900n    1.8000  
   29.57000n    1.8000  
   29.57100n    1.8000  
   29.57200n    1.8000  
   29.57300n    1.8000  
   29.57400n    1.8000  
   29.57500n    1.8000  
   29.57600n    1.8000  
   29.57700n    1.8000  
   29.57800n    1.8000  
   29.57900n    1.8000  
   29.58000n    1.8000  
   29.58100n    1.8000  
   29.58200n    1.8000  
   29.58300n    1.8000  
   29.58400n    1.8000  
   29.58500n    1.8000  
   29.58600n    1.8000  
   29.58700n    1.8000  
   29.58800n    1.8000  
   29.58900n    1.8000  
   29.59000n    1.8000  
   29.59100n    1.8000  
   29.59200n    1.8000  
   29.59300n    1.8000  
   29.59400n    1.8000  
   29.59500n    1.8000  
   29.59600n    1.8000  
   29.59700n    1.8000  
   29.59800n    1.8000  
   29.59900n    1.8000  
   29.60000n    1.8000  
   29.60100n    1.8000  
   29.60200n    1.8000  
   29.60300n    1.8000  
   29.60400n    1.8000  
   29.60500n    1.8000  
   29.60600n    1.8000  
   29.60700n    1.8000  
   29.60800n    1.8000  
   29.60900n    1.8000  
   29.61000n    1.8000  
   29.61100n    1.8000  
   29.61200n    1.8000  
   29.61300n    1.8000  
   29.61400n    1.8000  
   29.61500n    1.8000  
   29.61600n    1.8000  
   29.61700n    1.8000  
   29.61800n    1.8000  
   29.61900n    1.8000  
   29.62000n    1.8000  
   29.62100n    1.8000  
   29.62200n    1.8000  
   29.62300n    1.8000  
   29.62400n    1.8000  
   29.62500n    1.8000  
   29.62600n    1.8000  
   29.62700n    1.8000  
   29.62800n    1.8000  
   29.62900n    1.8000  
   29.63000n    1.8000  
   29.63100n    1.8000  
   29.63200n    1.8000  
   29.63300n    1.8000  
   29.63400n    1.8000  
   29.63500n    1.8000  
   29.63600n    1.8000  
   29.63700n    1.8000  
   29.63800n    1.8000  
   29.63900n    1.8000  
   29.64000n    1.8000  
   29.64100n    1.8000  
   29.64200n    1.8000  
   29.64300n    1.8000  
   29.64400n    1.8000  
   29.64500n    1.8000  
   29.64600n    1.8000  
   29.64700n    1.8000  
   29.64800n    1.8000  
   29.64900n    1.8000  
   29.65000n    1.8000  
   29.65100n    1.8000  
   29.65200n    1.8000  
   29.65300n    1.8000  
   29.65400n    1.8000  
   29.65500n    1.8000  
   29.65600n    1.8000  
   29.65700n    1.8000  
   29.65800n    1.8000  
   29.65900n    1.8000  
   29.66000n    1.8000  
   29.66100n    1.8000  
   29.66200n    1.8000  
   29.66300n    1.8000  
   29.66400n    1.8000  
   29.66500n    1.8000  
   29.66600n    1.8000  
   29.66700n    1.8000  
   29.66800n    1.8000  
   29.66900n    1.8000  
   29.67000n    1.8000  
   29.67100n    1.8000  
   29.67200n    1.8000  
   29.67300n    1.8000  
   29.67400n    1.8000  
   29.67500n    1.8000  
   29.67600n    1.8000  
   29.67700n    1.8000  
   29.67800n    1.8000  
   29.67900n    1.8000  
   29.68000n    1.8000  
   29.68100n    1.8000  
   29.68200n    1.8000  
   29.68300n    1.8000  
   29.68400n    1.8000  
   29.68500n    1.8000  
   29.68600n    1.8000  
   29.68700n    1.8000  
   29.68800n    1.8000  
   29.68900n    1.8000  
   29.69000n    1.8000  
   29.69100n    1.8000  
   29.69200n    1.8000  
   29.69300n    1.8000  
   29.69400n    1.8000  
   29.69500n    1.8000  
   29.69600n    1.8000  
   29.69700n    1.8000  
   29.69800n    1.8000  
   29.69900n    1.8000  
   29.70000n    1.8000  
   29.70100n    1.8000  
   29.70200n    1.8000  
   29.70300n    1.8000  
   29.70400n    1.8000  
   29.70500n    1.8000  
   29.70600n    1.8000  
   29.70700n    1.8000  
   29.70800n    1.8000  
   29.70900n    1.8000  
   29.71000n    1.8000  
   29.71100n    1.8000  
   29.71200n    1.8000  
   29.71300n    1.8000  
   29.71400n    1.8000  
   29.71500n    1.8000  
   29.71600n    1.8000  
   29.71700n    1.8000  
   29.71800n    1.8000  
   29.71900n    1.8000  
   29.72000n    1.8000  
   29.72100n    1.8000  
   29.72200n    1.8000  
   29.72300n    1.8000  
   29.72400n    1.8000  
   29.72500n    1.8000  
   29.72600n    1.8000  
   29.72700n    1.8000  
   29.72800n    1.8000  
   29.72900n    1.8000  
   29.73000n    1.8000  
   29.73100n    1.8000  
   29.73200n    1.8000  
   29.73300n    1.8000  
   29.73400n    1.8000  
   29.73500n    1.8000  
   29.73600n    1.8000  
   29.73700n    1.8000  
   29.73800n    1.8000  
   29.73900n    1.8000  
   29.74000n    1.8000  
   29.74100n    1.8000  
   29.74200n    1.8000  
   29.74300n    1.8000  
   29.74400n    1.8000  
   29.74500n    1.8000  
   29.74600n    1.8000  
   29.74700n    1.8000  
   29.74800n    1.8000  
   29.74900n    1.8000  
   29.75000n    1.8000  
   29.75100n    1.8000  
   29.75200n    1.8000  
   29.75300n    1.8000  
   29.75400n    1.8000  
   29.75500n    1.8000  
   29.75600n    1.8000  
   29.75700n    1.8000  
   29.75800n    1.8000  
   29.75900n    1.8000  
   29.76000n    1.8000  
   29.76100n    1.8000  
   29.76200n    1.8000  
   29.76300n    1.8000  
   29.76400n    1.8000  
   29.76500n    1.8000  
   29.76600n    1.8000  
   29.76700n    1.8000  
   29.76800n    1.8000  
   29.76900n    1.8000  
   29.77000n    1.8000  
   29.77100n    1.8000  
   29.77200n    1.8000  
   29.77300n    1.8000  
   29.77400n    1.8000  
   29.77500n    1.8000  
   29.77600n    1.8000  
   29.77700n    1.8000  
   29.77800n    1.8000  
   29.77900n    1.8000  
   29.78000n    1.8000  
   29.78100n    1.8000  
   29.78200n    1.8000  
   29.78300n    1.8000  
   29.78400n    1.8000  
   29.78500n    1.8000  
   29.78600n    1.8000  
   29.78700n    1.8000  
   29.78800n    1.8000  
   29.78900n    1.8000  
   29.79000n    1.8000  
   29.79100n    1.8000  
   29.79200n    1.8000  
   29.79300n    1.8000  
   29.79400n    1.8000  
   29.79500n    1.8000  
   29.79600n    1.8000  
   29.79700n    1.8000  
   29.79800n    1.8000  
   29.79900n    1.8000  
   29.80000n    1.8000  
   29.80100n    1.8000  
   29.80200n    1.8000  
   29.80300n    1.8000  
   29.80400n    1.8000  
   29.80500n    1.8000  
   29.80600n    1.8000  
   29.80700n    1.8000  
   29.80800n    1.8000  
   29.80900n    1.8000  
   29.81000n    1.8000  
   29.81100n    1.8000  
   29.81200n    1.8000  
   29.81300n    1.8000  
   29.81400n    1.8000  
   29.81500n    1.8000  
   29.81600n    1.8000  
   29.81700n    1.8000  
   29.81800n    1.8000  
   29.81900n    1.8000  
   29.82000n    1.8000  
   29.82100n    1.8000  
   29.82200n    1.8000  
   29.82300n    1.8000  
   29.82400n    1.8000  
   29.82500n    1.8000  
   29.82600n    1.8000  
   29.82700n    1.8000  
   29.82800n    1.8000  
   29.82900n    1.8000  
   29.83000n    1.8000  
   29.83100n    1.8000  
   29.83200n    1.8000  
   29.83300n    1.8000  
   29.83400n    1.8000  
   29.83500n    1.8000  
   29.83600n    1.8000  
   29.83700n    1.8000  
   29.83800n    1.8000  
   29.83900n    1.8000  
   29.84000n    1.8000  
   29.84100n    1.8000  
   29.84200n    1.8000  
   29.84300n    1.8000  
   29.84400n    1.8000  
   29.84500n    1.8000  
   29.84600n    1.8000  
   29.84700n    1.8000  
   29.84800n    1.8000  
   29.84900n    1.8000  
   29.85000n    1.8000  
   29.85100n    1.8000  
   29.85200n    1.8000  
   29.85300n    1.8000  
   29.85400n    1.8000  
   29.85500n    1.8000  
   29.85600n    1.8000  
   29.85700n    1.8000  
   29.85800n    1.8000  
   29.85900n    1.8000  
   29.86000n    1.8000  
   29.86100n    1.8000  
   29.86200n    1.8000  
   29.86300n    1.8000  
   29.86400n    1.8000  
   29.86500n    1.8000  
   29.86600n    1.8000  
   29.86700n    1.8000  
   29.86800n    1.8000  
   29.86900n    1.8000  
   29.87000n    1.8000  
   29.87100n    1.8000  
   29.87200n    1.8000  
   29.87300n    1.8000  
   29.87400n    1.8000  
   29.87500n    1.8000  
   29.87600n    1.8000  
   29.87700n    1.8000  
   29.87800n    1.8000  
   29.87900n    1.8000  
   29.88000n    1.8000  
   29.88100n    1.8000  
   29.88200n    1.8000  
   29.88300n    1.8000  
   29.88400n    1.8000  
   29.88500n    1.8000  
   29.88600n    1.8000  
   29.88700n    1.8000  
   29.88800n    1.8000  
   29.88900n    1.8000  
   29.89000n    1.8000  
   29.89100n    1.8000  
   29.89200n    1.8000  
   29.89300n    1.8000  
   29.89400n    1.8000  
   29.89500n    1.8000  
   29.89600n    1.8000  
   29.89700n    1.8000  
   29.89800n    1.8000  
   29.89900n    1.8000  
   29.90000n    1.8000  
   29.90100n    1.8000  
   29.90200n    1.8000  
   29.90300n    1.8000  
   29.90400n    1.8000  
   29.90500n    1.8000  
   29.90600n    1.8000  
   29.90700n    1.8000  
   29.90800n    1.8000  
   29.90900n    1.8000  
   29.91000n    1.8000  
   29.91100n    1.8000  
   29.91200n    1.8000  
   29.91300n    1.8000  
   29.91400n    1.8000  
   29.91500n    1.8000  
   29.91600n    1.8000  
   29.91700n    1.8000  
   29.91800n    1.8000  
   29.91900n    1.8000  
   29.92000n    1.8000  
   29.92100n    1.8000  
   29.92200n    1.8000  
   29.92300n    1.8000  
   29.92400n    1.8000  
   29.92500n    1.8000  
   29.92600n    1.8000  
   29.92700n    1.8000  
   29.92800n    1.8000  
   29.92900n    1.8000  
   29.93000n    1.8000  
   29.93100n    1.8000  
   29.93200n    1.8000  
   29.93300n    1.8000  
   29.93400n    1.8000  
   29.93500n    1.8000  
   29.93600n    1.8000  
   29.93700n    1.8000  
   29.93800n    1.8000  
   29.93900n    1.8000  
   29.94000n    1.8000  
   29.94100n    1.8000  
   29.94200n    1.8000  
   29.94300n    1.8000  
   29.94400n    1.8000  
   29.94500n    1.8000  
   29.94600n    1.8000  
   29.94700n    1.8000  
   29.94800n    1.8000  
   29.94900n    1.8000  
   29.95000n    1.8000  
   29.95100n    1.8000  
   29.95200n    1.8000  
   29.95300n    1.8000  
   29.95400n    1.8000  
   29.95500n    1.8000  
   29.95600n    1.8000  
   29.95700n    1.8000  
   29.95800n    1.8000  
   29.95900n    1.8000  
   29.96000n    1.8000  
   29.96100n    1.8000  
   29.96200n    1.8000  
   29.96300n    1.8000  
   29.96400n    1.8000  
   29.96500n    1.8000  
   29.96600n    1.8000  
   29.96700n    1.8000  
   29.96800n    1.8000  
   29.96900n    1.8000  
   29.97000n    1.8000  
   29.97100n    1.8000  
   29.97200n    1.8000  
   29.97300n    1.8000  
   29.97400n    1.8000  
   29.97500n    1.8000  
   29.97600n    1.8000  
   29.97700n    1.8000  
   29.97800n    1.8000  
   29.97900n    1.8000  
   29.98000n    1.8000  
   29.98100n    1.8000  
   29.98200n    1.8000  
   29.98300n    1.8000  
   29.98400n    1.8000  
   29.98500n    1.8000  
   29.98600n    1.8000  
   29.98700n    1.8000  
   29.98800n    1.8000  
   29.98900n    1.8000  
   29.99000n    1.8000  
   29.99100n    1.8000  
   29.99200n    1.8000  
   29.99300n    1.8000  
   29.99400n    1.8000  
   29.99500n    1.8000  
   29.99600n    1.8000  
   29.99700n    1.8000  
   29.99800n    1.8000  
   29.99900n    1.8000  
   30.00000n    1.8000  
y

          ***** job concluded
 ******  
 *

 ****** job statistics summary tnom=  25.000 temp=  25.000 ******
  
 ******  Machine Information  ******
 CPU:
 model name	: Intel(R) Xeon(R) CPU E5-4617 0 @ 2.90GHz
 cpu MHz	: 2900.000
 CPU(s)		: 12
  
 OS:
 Linux version 3.10.0-1160.42.2.el7.x86_64 (mockbuild@x86-vm-40.build.eng.bos.redhat.com) (gcc version 4.8.5 20150623 (Red Hat 4.8.5-44) (GCC) ) #1 SMP Tue Aug 31 20:15:00 UTC 2021

 System loadavg : 2.93 2.48 2.26 3/4129 21601


  ******  HSPICE Threads Information  ******

  Command Line Threads Count :     1
  Available CPU Count        :    12
  Actual Threads Count       :     1


  ****** Statistics of Ignored Elements ******
  Voltage Sources :       1

  ******  Circuit Statistics  ******
  # nodes       =      43 # elements   =      24
  # resistors   =       0 # capacitors =       0 # inductors   =       0
  # mutual_inds =       0 # vccs       =       0 # vcvs        =       0
  # cccs        =       0 # ccvs       =       0 # volt_srcs   =       6
  # curr_srcs   =       0 # diodes     =       0 # bjts        =       0
  # jfets       =       0 # mosfets    =      18 # U elements  =       0
  # T elements  =       0 # W elements =       0 # B elements  =       0
  # S elements  =       0 # P elements =       0 # va device   =       0
  # vector_srcs =       0 # N elements =       0


  ******  Runtime Statistics (seconds)  ******

  analysis           time    # points   tot. iter  conv.iter
  op point           0.01           1          29
  transient          0.02       30001         352         128 rev=         6
  readin             0.29
  errchk             0.01
  setup              0.00
  output             0.00


           peak memory used        639.74 megabytes
           total cpu time            0.77 seconds
           total elapsed time        0.83 seconds
           job started at     15:19:40 12/09/2021
           job ended   at     15:19:41 12/09/2021

>info:         ***** hspice job concluded
           job total runtime         0.83 seconds


 lic: Release hspice token(s) 
 lic: total license checkout elapse time:        0.05(s)
