Using: /programs/synopsys/hspice/current/hspice/linux64/hspice sram1.spice
 ****** PrimeSim HSPICE -- R-2020.12-SP1 linux64 (Apr 10 2021 6983340) ******
  Copyright (c) 1986 - 2021 by Synopsys, Inc. All Rights Reserved.
  This software and the associated documentation are proprietary
  to Synopsys, Inc. This software may only be used in accordance
  with the terms and conditions of a written license agreement with
  Synopsys, Inc. All other use, reproduction, or distribution of
  this software is strictly prohibited.
  Input File: sram1.spice                                                       
  Command line options: /programs/synopsys/hspice/current/hspice/linux64/hspice sram1.spice
  Start time: Thu Dec  9 10:26:14 2021
 lic:  
 lic: FLEXlm: SDK_12.9.5 
 lic: USER:   jstine               HOSTNAME: rivendell.ecen.okstate.edu 
 lic: HOSTID: "2c44fd862b18"       PID:      71596 
 lic: Using FLEXlm license file: 
 lic: 27020@trelaina.ecen.okstate.edu 
 lic: Checkout 1 hspice 
 lic: License/Maintenance for hspice will expire on 27-jan-2022/2020.12 
 lic: 1(in_use)/50(total) FLOATING license(s) on SERVER 27020@trelaina.ecen.okstate.edu 
 lic:   
  **warning** (/home/tdene/Public/skywater-src-nda/s8_spice_models/models.all:10) Unknown option mc_ignore_binning. Check the option name again.
1****** PrimeSim HSPICE -- R-2020.12-SP1 linux64 (Apr 10 2021 6983340) ******
 ******  
 *

 ****** circuit name directory
 circuit number to circuit name directory
   number circuitname                     definition         multiplier
        0 main circuit
        1 xinvm.                          invm               1.00 
        2 xinv.                           invm               1.00 
        3 xload1.                         inv                1.00 
        4 xload2.                         inv                1.00 
  **warning** (sram1.spice:12) Both nodes of element vgnd are connected together; Line ignored.
  **info** (sram1.spice:18) DC voltage reset to initial transient source value in source 0:vrwl0. new dc=0.0000D+00
 ***************************************************************************
 ***        model parameters  model name:   0:npass.0          model type:nmos   ***
 ***************************************************************************

   *** general parameters ***
    deriv=   0.           

   ***  level 49  model parameters  ***

      hspver=    2006.03               level=         49         
     version=        3.2            paramchk=          0         
      apwarn=          1                lite=          0         
      vgslim=          0             binUnit=          2         
      capMod=          3               xpart=          0         
      mobMod=          1              nqsMod=          0         
      stiMod=          0                 elm=          0         
    sfvtflag=          0                 tox=  4.148e-09 meter   
          xj=    1.2e-07 meter       binflag=          0         
        lmin=    7.5e-08 meter          lmax=  1.505e-07 meter   
        wmin=  1.395e-07 meter          wmax=  1.405e-07 meter   
        lref=          0 meter          wref=          0 meter   
        lint=          0 meter          wint=          0 meter   
       lmult=          1               wmult=          1         
          ll=          0                 lln=          1         
          lw=          0                 lwn=          1         
         lwl=          0                  wl=          0         
         wln=          1                  ww=          0         
         wwn=          1                 wwl=          0         
         dwg=          0 m/V             dwb=          0 m/V^1/2 
          xl=          0                  xw=          0         
          a0=          1                 ags=     0.5115 V^-1    
          b0=          0 meter            b1=          0 meter   
        keta=  -0.061906 V^-1           voff=   -0.15507 V       
       ngate=      1e+23 cm^-3           vbx=          0 V       
         vbm=         -3 V                xt=   1.55e-07 meter   
        vth0=   0.677612 V               nch=1.12471e+18 cm^-3   
        nsub=      6e+16 cm^-3           nlx=          0 meter   
      gamma1=          0 V^-1/2       gamma2=          0 V^-1/2  
          k1=    0.53066 V^1/2            k2=   -0.12745         
          k3=          0                 k3b=          0 V^-1    
          w0=      1e-06 meter          dvt0=          0         
        dvt1=       0.53                dvt2=          0 V^-1    
       dvt0w=          0 meter^-1      dvt1w=      10100 meter^-1
       dvt2w=          0 V^-1           dsub=        0.5         
        eta0=     0.1168                etab=    0.00804 V^-1    
          u0=  0.0129974 m^2/V/sec         ua=-1.9925e-09 m/V     
          ub= 1.9307e-18 (m/V)^2          uc= 4.5872e-11 V^-1    
        vsat=     101250 m/sec            a1=          0 v^-1    
          a2=          1               delta=     0.0104 V       
        rdsw=    103.211 ohm-um         prwg=        0.2 V^-1    
        prwb=        0.3 V^-1/2           wr=          1         
        pclm=    0.93451             pdiblc1=          0         
     pdiblc2=   0.035291             pdiblcb=   -0.15462 V^-1    
      pscbe1= 7.8166e+08 V/m          pscbe2=      1e-20 V/m     
       drout=        0.5                pvag=          0         
     nfactor=     1.7935                cdsc=          0 f/m^2   
       cdscb=          0 f/V/m^2       cdscd=          0 f/V/m^2 
         cit=          0 f/m^2        alpha0= 0.00064059 m/V     
       beta0=       26.6 V               dlc= 1.8739e-08 meter   
         dwc=          0 meter           clc=      1e-07 meter   
         cle=        0.6                cgso=3.14944e-10 f/m     
        cgdo=3.14944e-10 f/m            cgbo=      1e-13 f/m     
        cgsl=          0 f/m            cgdl=          0 f/m     
      ckappa=        0.6                  cf= 1.4067e-12 f/m     
        acde=        0.4 m/V            moin=        6.9 V^1/2   
        toxm=  4.148e-09 m            dtoxcv=          0 m       
         vfb=    -0.9693 V            alpha1=          0 1/V     
        ijth=        0.1 A              noff=      3.621         
      voffcv=    -0.1372                 tcj=   0.000792 1/K     
       tcjsw=      1e-05 1/K          tcjswg=          0 1/K     
         tpb=  0.0012287 V/K           tpbsw=          0 V/K     
      tpbswg=          0 V/K             llc=          0         
         lwc=          0                lwlc=          0         
         wlc=          0                 wwc=          0         
        wwlc=          0                tnom=     303.15 K       
         kt1=     -0.245 V              kt1l=          0         
         kt2=   -0.01458                 ute=    -1.1259         
         ua1= 3.7209e-10 m/V             ub1=-1.3557e-19 (m/V)^2 
         uc1=  -2.31e-12 m/V^2            at=      25430 m/s     
         prt=          0         
         using Berkeley noise model       noiMod=          2         
        noia=1.87794e+20                noib=    51258.8         
        noic=-5.97434e-13                  em=    4.1e+07         
          ef=   0.843936                  af=          1         
          kf=          0              gdsnoi=-1.23457e-29         
         using Berkeley diodes          not using ACM  
         acm=        12                 hdif=         0 meter    
        ldif=         0 meter             js=   0.00275 amp/m^2  
         jsw=     6e-10 amp/m            xti=         2          
          nj=    1.2928                   cj=0.00133975 f/m^2    
          mj=      0.44                   pb=     0.729 V        
        cjsw=3.67354e-11 f/m             mjsw=    0.0009          
         php (not used)                  pbsw=       0.2 V        
      cjgate (not used)                 cjswg=2.38233e-10 f/m      
       mjswg=       0.8                pbswg=   0.95578 V        
 ***************************************************************************
 ***        model parameters  model name:   0:npd.0            model type:nmos   ***
 ***************************************************************************

   *** general parameters ***
    deriv=   0.           

   ***  level 49  model parameters  ***

      hspver=    2006.03               level=         49         
     version=        3.2            paramchk=          0         
      apwarn=          1                lite=          0         
      vgslim=          0             binUnit=          2         
      capMod=          3               xpart=          0         
      mobMod=          1              nqsMod=          0         
      stiMod=          0                 elm=          0         
    sfvtflag=          0                 tox=  4.148e-09 meter   
          xj=    1.2e-07 meter       binflag=          0         
        lmin=    7.5e-08 meter          lmax=  1.505e-07 meter   
        wmin=  2.095e-07 meter          wmax=  2.105e-07 meter   
        lref=          0 meter          wref=          0 meter   
        lint=          0 meter          wint=          0 meter   
       lmult=          1               wmult=          1         
          ll=          0                 lln=          1         
          lw=          0                 lwn=          1         
         lwl=          0                  wl=          0         
         wln=          1                  ww=          0         
         wwn=          1                 wwl=          0         
         dwg=          0 m/V             dwb=          0 m/V^1/2 
          xl=          0                  xw=          0         
          a0=       -0.1                 ags=       0.02 V^-1    
          b0=          0 meter            b1=          0 meter   
        keta=  -0.019632 V^-1           voff=     -0.139 V       
       ngate=      1e+23 cm^-3           vbx=          0 V       
         vbm=         -3 V                xt=   1.55e-07 meter   
        vth0=   0.740032 V               nch=1.12471e+18 cm^-3   
        nsub=      6e+16 cm^-3           nlx=          0 meter   
      gamma1=          0 V^-1/2       gamma2=          0 V^-1/2  
          k1=      0.498 V^1/2            k2=    -0.1068         
          k3=          0                 k3b=          0 V^-1    
          w0=          0 meter          dvt0=          0         
        dvt1=       0.53                dvt2=          0 V^-1    
       dvt0w=          0 meter^-1      dvt1w=          0 meter^-1
       dvt2w=          0 V^-1           dsub=          0         
        eta0=       0.01                etab=    -0.0042 V^-1    
          u0=  0.0229197 m^2/V/sec         ua= -1.048e-09 m/V     
          ub= 1.2106e-18 (m/V)^2          uc= 6.2252e-11 V^-1    
        vsat=      82072 m/sec            a1=          0 v^-1    
          a2=       0.99               delta=      0.023 V       
        rdsw=    187.119 ohm-um         prwg=        0.2 V^-1    
        prwb=        0.3 V^-1/2           wr=          1         
        pclm=   0.934512             pdiblc1=          0         
     pdiblc2=   0.024526             pdiblcb=  0.0557367 V^-1    
      pscbe1= 7.7384e+08 V/m          pscbe2=    9.2e-21 V/m     
       drout=          0                pvag=          0         
     nfactor=      1.078                cdsc=          0 f/m^2   
       cdscb=          0 f/V/m^2       cdscd=          0 f/V/m^2 
         cit=          0 f/m^2        alpha0=    4.1e-06 m/V     
       beta0=      17.69 V               dlc= 1.8739e-08 meter   
         dwc=          0 meter           clc=      1e-07 meter   
         cle=        0.6                cgso=3.14944e-10 f/m     
        cgdo=3.14944e-10 f/m            cgbo=      1e-13 f/m     
        cgsl=          0 f/m            cgdl=          0 f/m     
      ckappa=        0.6                  cf= 1.4067e-12 f/m     
        acde=        0.4 m/V            moin=        6.9 V^1/2   
        toxm=  4.148e-09 m            dtoxcv=          0 m       
         vfb=    -0.9693 V            alpha1=          0 1/V     
        ijth=        0.1 A              noff=      3.621         
      voffcv=    -0.1372                 tcj=   0.000792 1/K     
       tcjsw=      1e-05 1/K          tcjswg=          0 1/K     
         tpb=  0.0012287 V/K           tpbsw=          0 V/K     
      tpbswg=          0 V/K             llc=          0         
         lwc=          0                lwlc=          0         
         wlc=          0                 wwc=          0         
        wwlc=          0                tnom=     303.15 K       
         kt1=    -0.2357 V              kt1l=          0         
         kt2=      -0.02                 ute=      -1.25         
         ua1=    5.5e-10 m/V             ub1=     -2e-19 (m/V)^2 
         uc1=   -3.5e-12 m/V^2            at=      31512 m/s     
         prt=    -8.0505         
         using Berkeley noise model       noiMod=          2         
        noia=1.87794e+20                noib=    51258.8         
        noic=-5.97434e-13                  em=    4.1e+07         
          ef=   0.843936                  af=          1         
          kf=          0              gdsnoi=-1.23457e-29         
         using Berkeley diodes          not using ACM  
         acm=        12                 hdif=         0 meter    
        ldif=         0 meter             js=   0.00275 amp/m^2  
         jsw=     6e-10 amp/m            xti=         2          
          nj=    1.2928                   cj=0.00133975 f/m^2    
          mj=      0.44                   pb=     0.729 V        
        cjsw=3.67354e-11 f/m             mjsw=    0.0009          
         php (not used)                  pbsw=       0.2 V        
      cjgate (not used)                 cjswg=2.38233e-10 f/m      
       mjswg=       0.8                pbswg=   0.95578 V        
 ***************************************************************************
 ***        model parameters  model name:   0:ppu.0            model type:pmos   ***
 ***************************************************************************

   *** general parameters ***
    deriv=   0.           

   ***  level 49  model parameters  ***

      hspver=    2006.03               level=         49         
     version=        3.2            paramchk=          0         
      apwarn=          1                lite=          0         
      vgslim=          0             binUnit=          2         
      capMod=          3               xpart=          0         
      mobMod=          1              nqsMod=          0         
      stiMod=          0                 elm=          0         
    sfvtflag=          0                 tox=  4.214e-09 meter   
          xj=   1.15e-07 meter       binflag=          0         
        lmin=  1.495e-07 meter          lmax=  1.505e-07 meter   
        wmin=  1.395e-07 meter          wmax=  1.405e-07 meter   
        lref=          0 meter          wref=          0 meter   
        lint=          0 meter          wint=          0 meter   
       lmult=          1               wmult=          1         
          ll=          0                 lln=          1         
          lw=          0                 lwn=          1         
         lwl=          0                  wl=          0         
         wln=          1                  ww=          0         
         wwn=          1                 wwl=          0         
         dwg=          0 m/V             dwb=          0 m/V^1/2 
          xl=          0                  xw=          0         
          a0=     1.6572                 ags=    0.01944 V^-1    
          b0=          0 meter            b1=          0 meter   
        keta=   0.032965 V^-1           voff=   -0.17082 V       
       ngate=      1e+23 cm^-3           vbx=          0 V       
         vbm=         -3 V                xt=   1.55e-07 meter   
        vth0=  -0.878406 V               nch=7.91926e+17 cm^-3   
        nsub=      6e+16 cm^-3           nlx=          0 meter   
      gamma1=          0 V^-1/2       gamma2=          0 V^-1/2  
          k1=    0.48313 V^1/2            k2=  -0.086211         
          k3=          0                 k3b=          0 V^-1    
          w0=      1e-10 meter          dvt0=          0         
        dvt1=      1e-10                dvt2=          0 V^-1    
       dvt0w=          0 meter^-1      dvt1w=      10001 meter^-1
       dvt2w=          0 V^-1           dsub=      1e-10         
        eta0=      0.001                etab=          0 V^-1    
          u0= 0.00341192 m^2/V/sec         ua=-1.5724e-09 m/V     
          ub= 1.0206e-18 (m/V)^2          uc=-2.1234e-11 V^-1    
        vsat=     100410 m/sec            a1=          0 v^-1    
          a2=        0.4               delta=   0.071729 V       
        rdsw=    659.884 ohm-um         prwg=          0 V^-1    
        prwb=          0 V^-1/2           wr=          1         
        pclm=     2.4129             pdiblc1=          0         
     pdiblc2=  0.0238053             pdiblcb=       -0.5 V^-1    
      pscbe1= 7.0054e+08 V/m          pscbe2=      1e-20 V/m     
       drout=      1e-10                pvag=          0         
     nfactor=          2                cdsc=          0 f/m^2   
       cdscb=     0.0005 f/V/m^2       cdscd=          0 f/V/m^2 
         cit=     -0.002 f/m^2        alpha0= 1.3735e-06 m/V     
       beta0=     23.765 V               dlc=   5.67e-09 meter   
         dwc=          0 meter           clc=      1e-07 meter   
         cle=        0.6                cgso=1.34038e-10 f/m     
        cgdo=1.34038e-10 f/m            cgbo=          0 f/m     
        cgsl=9.54827e-12 f/m            cgdl=9.54827e-12 f/m     
      ckappa=        0.6                  cf=    1.2e-11 f/m     
        acde=      0.401 m/V            moin=      18.13 V^1/2   
        toxm=  4.214e-09 m            dtoxcv=          0 m       
         vfb=  -0.387269 V            alpha1=          0 1/V     
        ijth=        0.1 A              noff=        3.9         
      voffcv=   -0.10701                 tcj=  0.0012407 1/K     
       tcjsw= 0.00037357 1/K          tcjswg=      2e-12 1/K     
         tpb=  0.0020386 V/K           tpbsw=   0.001246 V/K     
      tpbswg=          0 V/K             llc=          0         
         lwc=          0                lwlc=          0         
         wlc=          0                 wwc=          0         
        wwlc=          0                tnom=     303.15 K       
         kt1=   -0.50219 V              kt1l=          0         
         kt2=  -0.048934                 ute=       -0.8         
         ua1=-4.1272e-11 m/V             ub1= 4.0968e-19 (m/V)^2 
         uc1= 1.2689e-11 m/V^2            at=     3000.3 m/s     
         prt=    0.49191         
         using Berkeley noise model       noiMod=          1         
        noia=    9.9e+18                noib=       2400         
        noic=    1.4e-12                  em=    4.1e+07         
          ef=          1                  af=          1         
          kf=          0              gdsnoi=-1.23457e-29         
         using Berkeley diodes          not using ACM  
         acm=        12                 hdif=         0 meter    
        ldif=         0 meter             js=2.1483e-05 amp/m^2  
         jsw=  8.04e-10 amp/m            xti=       5.2          
          nj=    1.3632                   cj=0.000738019 f/m^2    
          mj=   0.34629                   pb=    0.6587 V        
        cjsw=9.88889e-11 f/m             mjsw=   0.29781          
         php (not used)                  pbsw=    0.7418 V        
      cjgate (not used)                 cjswg=2.3894e-10 f/m      
       mjswg=    0.9274                pbswg=    1.4338 V        
  **error** (sram1.spice:29) Reference pshort not found, or instance width or length does not fit into the wmax/wmin or lmax/lmin range.  It was referenced in element xload1.m1000. The channel width=   1.260E-12 and length=   1.500E-13 .
 ***Template model information


 MODEL pshort.0 lmin=1.450000e-07 lmax=1.550000e-07 wmin=1.255000e-06 wmax=1.265000e-06 (l&w is out of range) 

 MODEL pshort.1 lmin=1.450000e-07 lmax=1.550000e-07 wmin=1.675000e-06 wmax=1.685000e-06 (l&w is out of range) 

 MODEL pshort.2 lmin=9.950000e-07 lmax=1.005000e-06 wmin=9.950000e-07 wmax=1.005000e-06 (l&w is out of range) 

 MODEL pshort.3 lmin=1.995000e-06 lmax=2.005000e-06 wmin=9.950000e-07 wmax=1.005000e-06 (l&w is out of range) 

 MODEL pshort.4 lmin=3.995000e-06 lmax=4.005000e-06 wmin=9.950000e-07 wmax=1.005000e-06 (l&w is out of range) 

 MODEL pshort.5 lmin=7.995000e-06 lmax=8.005000e-06 wmin=9.950000e-07 wmax=1.005000e-06 (l&w is out of range) 

 MODEL pshort.6 lmin=1.450000e-07 lmax=1.550000e-07 wmin=9.950000e-07 wmax=1.005000e-06 (l&w is out of range) 

 MODEL pshort.7 lmin=1.750000e-07 lmax=1.850000e-07 wmin=9.950000e-07 wmax=1.005000e-06 (l&w is out of range) 

 MODEL pshort.8 lmin=2.450000e-07 lmax=2.550000e-07 wmin=9.950000e-07 wmax=1.005000e-06 (l&w is out of range) 

 MODEL pshort.9 lmin=4.950000e-07 lmax=5.050000e-07 wmin=9.950000e-07 wmax=1.005000e-06 (l&w is out of range) 

 MODEL pshort.10 lmin=1.450000e-07 lmax=1.550000e-07 wmin=1.995000e-06 wmax=2.005000e-06 (l&w is out of range) 

 MODEL pshort.11 lmin=9.950000e-07 lmax=1.005000e-06 wmin=2.995000e-06 wmax=3.005000e-06 (l&w is out of range) 

 MODEL pshort.12 lmin=1.995000e-06 lmax=2.005000e-06 wmin=2.995000e-06 wmax=3.005000e-06 (l&w is out of range) 

 MODEL pshort.13 lmin=3.995000e-06 lmax=4.005000e-06 wmin=2.995000e-06 wmax=3.005000e-06 (l&w is out of range) 

 MODEL pshort.14 lmin=7.995000e-06 lmax=8.005000e-06 wmin=2.995000e-06 wmax=3.005000e-06 (l&w is out of range) 

 MODEL pshort.15 lmin=1.450000e-07 lmax=1.550000e-07 wmin=2.995000e-06 wmax=3.005000e-06 (l&w is out of range) 

 MODEL pshort.16 lmin=1.750000e-07 lmax=1.850000e-07 wmin=2.995000e-06 wmax=3.005000e-06 (l&w is out of range) 

 MODEL pshort.17 lmin=2.450000e-07 lmax=2.550000e-07 wmin=2.995000e-06 wmax=3.005000e-06 (l&w is out of range) 

 MODEL pshort.18 lmin=4.950000e-07 lmax=5.050000e-07 wmin=2.995000e-06 wmax=3.005000e-06 (l&w is out of range) 

 MODEL pshort.19 lmin=9.950000e-07 lmax=1.005000e-06 wmin=4.995000e-06 wmax=5.005000e-06 (l&w is out of range) 

 MODEL pshort.20 lmin=1.995000e-06 lmax=2.005000e-06 wmin=4.995000e-06 wmax=5.005000e-06 (l&w is out of range) 

 MODEL pshort.21 lmin=3.995000e-06 lmax=4.005000e-06 wmin=4.995000e-06 wmax=5.005000e-06 (l&w is out of range) 

 MODEL pshort.22 lmin=7.995000e-06 lmax=8.005000e-06 wmin=4.995000e-06 wmax=5.005000e-06 (l&w is out of range) 

 MODEL pshort.23 lmin=1.450000e-07 lmax=1.550000e-07 wmin=4.995000e-06 wmax=5.005000e-06 (l&w is out of range) 

 MODEL pshort.24 lmin=1.750000e-07 lmax=1.850000e-07 wmin=4.995000e-06 wmax=5.005000e-06 (l&w is out of range) 

 MODEL pshort.25 lmin=2.450000e-07 lmax=2.550000e-07 wmin=4.995000e-06 wmax=5.005000e-06 (l&w is out of range) 

 MODEL pshort.26 lmin=4.950000e-07 lmax=5.050000e-07 wmin=4.995000e-06 wmax=5.005000e-06 (l&w is out of range) 

 MODEL pshort.27 lmin=9.950000e-07 lmax=1.005000e-06 wmin=6.995000e-06 wmax=7.005000e-06 (l&w is out of range) 

 MODEL pshort.28 lmin=1.995000e-06 lmax=2.005000e-06 wmin=6.995000e-06 wmax=7.005000e-06 (l&w is out of range) 

 MODEL pshort.29 lmin=3.995000e-06 lmax=4.005000e-06 wmin=6.995000e-06 wmax=7.005000e-06 (l&w is out of range) 

 MODEL pshort.30 lmin=7.995000e-06 lmax=8.005000e-06 wmin=6.995000e-06 wmax=7.005000e-06 (l&w is out of range) 

 MODEL pshort.31 lmin=1.450000e-07 lmax=1.550000e-07 wmin=6.995000e-06 wmax=7.005000e-06 (l&w is out of range) 

 MODEL pshort.32 lmin=1.750000e-07 lmax=1.850000e-07 wmin=6.995000e-06 wmax=7.005000e-06 (l&w is out of range) 

 MODEL pshort.33 lmin=2.450000e-07 lmax=2.550000e-07 wmin=6.995000e-06 wmax=7.005000e-06 (l&w is out of range) 

 MODEL pshort.34 lmin=4.950000e-07 lmax=5.050000e-07 wmin=6.995000e-06 wmax=7.005000e-06 (l&w is out of range) 

 MODEL pshort.35 lmin=9.950000e-07 lmax=1.005000e-06 wmin=4.150000e-07 wmax=4.250000e-07 (l&w is out of range) 

 MODEL pshort.36 lmin=1.999500e-05 lmax=2.000500e-05 wmin=4.150000e-07 wmax=4.250000e-07 (l&w is out of range) 

 MODEL pshort.37 lmin=1.995000e-06 lmax=2.005000e-06 wmin=4.150000e-07 wmax=4.250000e-07 (l&w is out of range) 

 MODEL pshort.38 lmin=3.995000e-06 lmax=4.005000e-06 wmin=4.150000e-07 wmax=4.250000e-07 (l&w is out of range) 

 MODEL pshort.39 lmin=7.995000e-06 lmax=8.005000e-06 wmin=4.150000e-07 wmax=4.250000e-07 (l&w is out of range) 

 MODEL pshort.40 lmin=1.450000e-07 lmax=1.550000e-07 wmin=4.150000e-07 wmax=4.250000e-07 (l&w is out of range) 

 MODEL pshort.41 lmin=1.750000e-07 lmax=1.850000e-07 wmin=4.150000e-07 wmax=4.250000e-07 (l&w is out of range) 

 MODEL pshort.42 lmin=4.950000e-07 lmax=5.050000e-07 wmin=4.150000e-07 wmax=4.250000e-07 (l&w is out of range) 

 MODEL pshort.43 lmin=9.950000e-07 lmax=1.005000e-06 wmin=5.450000e-07 wmax=5.550000e-07 (l&w is out of range) 

 MODEL pshort.44 lmin=1.995000e-06 lmax=2.005000e-06 wmin=5.450000e-07 wmax=5.550000e-07 (l&w is out of range) 

 MODEL pshort.45 lmin=3.995000e-06 lmax=4.005000e-06 wmin=5.450000e-07 wmax=5.550000e-07 (l&w is out of range) 

 MODEL pshort.46 lmin=7.995000e-06 lmax=8.005000e-06 wmin=5.450000e-07 wmax=5.550000e-07 (l&w is out of range) 

 MODEL pshort.47 lmin=1.450000e-07 lmax=1.550000e-07 wmin=5.450000e-07 wmax=5.550000e-07 (l&w is out of range) 

 MODEL pshort.48 lmin=4.950000e-07 lmax=5.050000e-07 wmin=5.450000e-07 wmax=5.550000e-07 (l&w is out of range) 

 MODEL pshort.49 lmin=1.450000e-07 lmax=1.550000e-07 wmin=6.350000e-07 wmax=6.450000e-07 (l&w is out of range) 

 MODEL pshort.50 lmin=1.450000e-07 lmax=1.550000e-07 wmin=8.350000e-07 wmax=8.450000e-07 (l&w is out of range) 

 MODEL pshort.51 lmin=1.450000e-07 lmax=1.550000e-07 wmin=1.645000e-06 wmax=1.655000e-06 (l&w is out of range) 

 MODEL pshort.52 lmin=1.690000e-07 lmax=1.710000e-07 wmin=4.190000e-07 wmax=4.210000e-07 (l&w is out of range) 

 MODEL pshort.53 lmin=1.790000e-07 lmax=1.810000e-07 wmin=5.490000e-07 wmax=5.510000e-07 (l&w is out of range) 

 MODEL pshort.54 lmin=1.690000e-07 lmax=1.710000e-07 wmin=5.490000e-07 wmax=5.510000e-07 (l&w is out of range) 

 MODEL pshort.55 lmin=1.690000e-07 lmax=1.710000e-07 wmin=6.390000e-07 wmax=6.410000e-07 (l&w is out of range) 

 MODEL pshort.56 lmin=1.790000e-07 lmax=1.810000e-07 wmin=6.390000e-07 wmax=6.410000e-07 (l&w is out of range) 

 MODEL pshort.57 lmin=1.790000e-07 lmax=1.810000e-07 wmin=8.390000e-07 wmax=8.410000e-07 (l&w is out of range) 

 MODEL pshort.58 lmin=1.690000e-07 lmax=1.710000e-07 wmin=8.390000e-07 wmax=8.410000e-07 (l&w is out of range) 

 MODEL pshort.59 lmin=1.790000e-07 lmax=1.810000e-07 wmin=1.119000e-06 wmax=1.121000e-06 (l&w is out of range) 

 MODEL pshort.60 lmin=1.790000e-07 lmax=1.810000e-07 wmin=1.259000e-06 wmax=1.261000e-06 (l&w is out of range) 

 MODEL pshort.61 lmin=1.690000e-07 lmax=1.710000e-07 wmin=9.990000e-07 wmax=1.001000e-06 (l&w is out of range) 

 MODEL pshort.62 lmin=1.690000e-07 lmax=1.710000e-07 wmin=1.119000e-06 wmax=1.121000e-06 (l&w is out of range) 

 MODEL pshort.63 lmin=1.790000e-07 lmax=1.810000e-07 wmin=1.679000e-06 wmax=1.681000e-06 (l&w is out of range) 

 MODEL pshort.64 lmin=1.790000e-07 lmax=1.810000e-07 wmin=1.999000e-06 wmax=2.001000e-06 (l&w is out of range) 

 MODEL pshort.65 lmin=1.490000e-07 lmax=1.510000e-07 wmin=1.119000e-06 wmax=1.121000e-06 (l&w is out of range) 


          ***** job aborted
 ******  
 *

 ****** job statistics summary tnom=  25.000 temp=  25.000 ******
  
 ******  Machine Information  ******
 CPU:
 model name	: Intel(R) Xeon(R) CPU E5-4617 0 @ 2.90GHz
 cpu MHz	: 2900.000
 CPU(s)		: 12
  
 OS:
 Linux version 3.10.0-1160.42.2.el7.x86_64 (mockbuild@x86-vm-40.build.eng.bos.redhat.com) (gcc version 4.8.5 20150623 (Red Hat 4.8.5-44) (GCC) ) #1 SMP Tue Aug 31 20:15:00 UTC 2021

 System loadavg : 1.78 5.34 6.64 6/3810 71604


  ******  HSPICE Threads Information  ******

  Command Line Threads Count :     1
  Available CPU Count        :    12
  Actual Threads Count       :     1


  ****** Statistics of Ignored Elements ******
  Voltage Sources :       1

  ******  Circuit Statistics  ******
  # nodes       =      21 # elements   =      22
  # resistors   =       0 # capacitors =       1 # inductors   =       0
  # mutual_inds =       0 # vccs       =       0 # vcvs        =       0
  # cccs        =       0 # ccvs       =       0 # volt_srcs   =       7
  # curr_srcs   =       0 # diodes     =       0 # bjts        =       0
  # jfets       =       0 # mosfets    =      14 # U elements  =       0
  # T elements  =       0 # W elements =       0 # B elements  =       0
  # S elements  =       0 # P elements =       0 # va device   =       0
  # vector_srcs =       0 # N elements =       0


  ******  Runtime Statistics (seconds)  ******

  analysis           time    # points   tot. iter  conv.iter
  op point           0.00           1           0
  transient          0.00          46           0           0 rev=         0
  readin             0.29
  errchk             0.00
  setup              0.00
  output             0.00


           peak memory used        639.75 megabytes
           total cpu time            0.30 seconds
           total elapsed time        0.35 seconds
           job started at     10:26:14 12/09/2021
           job ended   at     10:26:14 12/09/2021
           job total runtime         0.35 seconds


 lic: Release hspice token(s) 
 lic: total license checkout elapse time:        0.05(s)
