Using: /programs/synopsys/hspice/current/hspice/linux64/hspice sram1.spice
 ****** PrimeSim HSPICE -- R-2020.12-SP1 linux64 (Apr 10 2021 6983340) ******
  Copyright (c) 1986 - 2021 by Synopsys, Inc. All Rights Reserved.
  This software and the associated documentation are proprietary
  to Synopsys, Inc. This software may only be used in accordance
  with the terms and conditions of a written license agreement with
  Synopsys, Inc. All other use, reproduction, or distribution of
  this software is strictly prohibited.
  Input File: sram1.spice                                                       
  Command line options: /programs/synopsys/hspice/current/hspice/linux64/hspice sram1.spice
  Start time: Thu Dec  9 10:40:24 2021
 lic:  
 lic: FLEXlm: SDK_12.9.5 
 lic: USER:   jstine               HOSTNAME: rivendell.ecen.okstate.edu 
 lic: HOSTID: "2c44fd862b18"       PID:      82413 
 lic: Using FLEXlm license file: 
 lic: 27020@trelaina.ecen.okstate.edu 
 lic: Checkout 1 hspice 
 lic: License/Maintenance for hspice will expire on 27-jan-2022/2020.12 
 lic: 1(in_use)/50(total) FLOATING license(s) on SERVER 27020@trelaina.ecen.okstate.edu 
 lic:   
  **warning** (/home/tdene/Public/skywater-src-nda/s8_spice_models/models.all:10) Unknown option mc_ignore_binning. Check the option name again.
1****** PrimeSim HSPICE -- R-2020.12-SP1 linux64 (Apr 10 2021 6983340) ******
 ******  
 *

 ****** circuit name directory
 circuit number to circuit name directory
   number circuitname                     definition         multiplier
        0 main circuit
        1 xinvm.                          invm               1.00 
        2 xinv.                           invm               1.00 
  **warning** (sram1.spice:12) Both nodes of element vgnd are connected together; Line ignored.
  **info** (sram1.spice:18) DC voltage reset to initial transient source value in source 0:vrwl0. new dc=0.0000D+00
 ***************************************************************************
 ***        model parameters  model name:   0:npass.0          model type:nmos   ***
 ***************************************************************************

   *** general parameters ***
    deriv=   0.           

   ***  level 49  model parameters  ***

      hspver=    2006.03               level=         49         
     version=        3.2            paramchk=          0         
      apwarn=          1                lite=          0         
      vgslim=          0             binUnit=          2         
      capMod=          3               xpart=          0         
      mobMod=          1              nqsMod=          0         
      stiMod=          0                 elm=          0         
    sfvtflag=          0                 tox=  4.148e-09 meter   
          xj=    1.2e-07 meter       binflag=          0         
        lmin=    7.5e-08 meter          lmax=  1.505e-07 meter   
        wmin=  1.395e-07 meter          wmax=  1.405e-07 meter   
        lref=          0 meter          wref=          0 meter   
        lint=          0 meter          wint=          0 meter   
       lmult=          1               wmult=          1         
          ll=          0                 lln=          1         
          lw=          0                 lwn=          1         
         lwl=          0                  wl=          0         
         wln=          1                  ww=          0         
         wwn=          1                 wwl=          0         
         dwg=          0 m/V             dwb=          0 m/V^1/2 
          xl=          0                  xw=          0         
          a0=          1                 ags=     0.5115 V^-1    
          b0=          0 meter            b1=          0 meter   
        keta=  -0.061906 V^-1           voff=   -0.15507 V       
       ngate=      1e+23 cm^-3           vbx=          0 V       
         vbm=         -3 V                xt=   1.55e-07 meter   
        vth0=   0.677612 V               nch=1.12471e+18 cm^-3   
        nsub=      6e+16 cm^-3           nlx=          0 meter   
      gamma1=          0 V^-1/2       gamma2=          0 V^-1/2  
          k1=    0.53066 V^1/2            k2=   -0.12745         
          k3=          0                 k3b=          0 V^-1    
          w0=      1e-06 meter          dvt0=          0         
        dvt1=       0.53                dvt2=          0 V^-1    
       dvt0w=          0 meter^-1      dvt1w=      10100 meter^-1
       dvt2w=          0 V^-1           dsub=        0.5         
        eta0=     0.1168                etab=    0.00804 V^-1    
          u0=  0.0129974 m^2/V/sec         ua=-1.9925e-09 m/V     
          ub= 1.9307e-18 (m/V)^2          uc= 4.5872e-11 V^-1    
        vsat=     101250 m/sec            a1=          0 v^-1    
          a2=          1               delta=     0.0104 V       
        rdsw=    103.211 ohm-um         prwg=        0.2 V^-1    
        prwb=        0.3 V^-1/2           wr=          1         
        pclm=    0.93451             pdiblc1=          0         
     pdiblc2=   0.035291             pdiblcb=   -0.15462 V^-1    
      pscbe1= 7.8166e+08 V/m          pscbe2=      1e-20 V/m     
       drout=        0.5                pvag=          0         
     nfactor=     1.7935                cdsc=          0 f/m^2   
       cdscb=          0 f/V/m^2       cdscd=          0 f/V/m^2 
         cit=          0 f/m^2        alpha0= 0.00064059 m/V     
       beta0=       26.6 V               dlc= 1.8739e-08 meter   
         dwc=          0 meter           clc=      1e-07 meter   
         cle=        0.6                cgso=3.14944e-10 f/m     
        cgdo=3.14944e-10 f/m            cgbo=      1e-13 f/m     
        cgsl=          0 f/m            cgdl=          0 f/m     
      ckappa=        0.6                  cf= 1.4067e-12 f/m     
        acde=        0.4 m/V            moin=        6.9 V^1/2   
        toxm=  4.148e-09 m            dtoxcv=          0 m       
         vfb=    -0.9693 V            alpha1=          0 1/V     
        ijth=        0.1 A              noff=      3.621         
      voffcv=    -0.1372                 tcj=   0.000792 1/K     
       tcjsw=      1e-05 1/K          tcjswg=          0 1/K     
         tpb=  0.0012287 V/K           tpbsw=          0 V/K     
      tpbswg=          0 V/K             llc=          0         
         lwc=          0                lwlc=          0         
         wlc=          0                 wwc=          0         
        wwlc=          0                tnom=     303.15 K       
         kt1=     -0.245 V              kt1l=          0         
         kt2=   -0.01458                 ute=    -1.1259         
         ua1= 3.7209e-10 m/V             ub1=-1.3557e-19 (m/V)^2 
         uc1=  -2.31e-12 m/V^2            at=      25430 m/s     
         prt=          0         
         using Berkeley noise model       noiMod=          2         
        noia=1.87794e+20                noib=    51258.8         
        noic=-5.97434e-13                  em=    4.1e+07         
          ef=   0.843936                  af=          1         
          kf=          0              gdsnoi=-1.23457e-29         
         using Berkeley diodes          not using ACM  
         acm=        12                 hdif=         0 meter    
        ldif=         0 meter             js=   0.00275 amp/m^2  
         jsw=     6e-10 amp/m            xti=         2          
          nj=    1.2928                   cj=0.00133975 f/m^2    
          mj=      0.44                   pb=     0.729 V        
        cjsw=3.67354e-11 f/m             mjsw=    0.0009          
         php (not used)                  pbsw=       0.2 V        
      cjgate (not used)                 cjswg=2.38233e-10 f/m      
       mjswg=       0.8                pbswg=   0.95578 V        
 ***************************************************************************
 ***        model parameters  model name:   0:npd.0            model type:nmos   ***
 ***************************************************************************

   *** general parameters ***
    deriv=   0.           

   ***  level 49  model parameters  ***

      hspver=    2006.03               level=         49         
     version=        3.2            paramchk=          0         
      apwarn=          1                lite=          0         
      vgslim=          0             binUnit=          2         
      capMod=          3               xpart=          0         
      mobMod=          1              nqsMod=          0         
      stiMod=          0                 elm=          0         
    sfvtflag=          0                 tox=  4.148e-09 meter   
          xj=    1.2e-07 meter       binflag=          0         
        lmin=    7.5e-08 meter          lmax=  1.505e-07 meter   
        wmin=  2.095e-07 meter          wmax=  2.105e-07 meter   
        lref=          0 meter          wref=          0 meter   
        lint=          0 meter          wint=          0 meter   
       lmult=          1               wmult=          1         
          ll=          0                 lln=          1         
          lw=          0                 lwn=          1         
         lwl=          0                  wl=          0         
         wln=          1                  ww=          0         
         wwn=          1                 wwl=          0         
         dwg=          0 m/V             dwb=          0 m/V^1/2 
          xl=          0                  xw=          0         
          a0=       -0.1                 ags=       0.02 V^-1    
          b0=          0 meter            b1=          0 meter   
        keta=  -0.019632 V^-1           voff=     -0.139 V       
       ngate=      1e+23 cm^-3           vbx=          0 V       
         vbm=         -3 V                xt=   1.55e-07 meter   
        vth0=   0.740032 V               nch=1.12471e+18 cm^-3   
        nsub=      6e+16 cm^-3           nlx=          0 meter   
      gamma1=          0 V^-1/2       gamma2=          0 V^-1/2  
          k1=      0.498 V^1/2            k2=    -0.1068         
          k3=          0                 k3b=          0 V^-1    
          w0=          0 meter          dvt0=          0         
        dvt1=       0.53                dvt2=          0 V^-1    
       dvt0w=          0 meter^-1      dvt1w=          0 meter^-1
       dvt2w=          0 V^-1           dsub=          0         
        eta0=       0.01                etab=    -0.0042 V^-1    
          u0=  0.0229197 m^2/V/sec         ua= -1.048e-09 m/V     
          ub= 1.2106e-18 (m/V)^2          uc= 6.2252e-11 V^-1    
        vsat=      82072 m/sec            a1=          0 v^-1    
          a2=       0.99               delta=      0.023 V       
        rdsw=    187.119 ohm-um         prwg=        0.2 V^-1    
        prwb=        0.3 V^-1/2           wr=          1         
        pclm=   0.934512             pdiblc1=          0         
     pdiblc2=   0.024526             pdiblcb=  0.0557367 V^-1    
      pscbe1= 7.7384e+08 V/m          pscbe2=    9.2e-21 V/m     
       drout=          0                pvag=          0         
     nfactor=      1.078                cdsc=          0 f/m^2   
       cdscb=          0 f/V/m^2       cdscd=          0 f/V/m^2 
         cit=          0 f/m^2        alpha0=    4.1e-06 m/V     
       beta0=      17.69 V               dlc= 1.8739e-08 meter   
         dwc=          0 meter           clc=      1e-07 meter   
         cle=        0.6                cgso=3.14944e-10 f/m     
        cgdo=3.14944e-10 f/m            cgbo=      1e-13 f/m     
        cgsl=          0 f/m            cgdl=          0 f/m     
      ckappa=        0.6                  cf= 1.4067e-12 f/m     
        acde=        0.4 m/V            moin=        6.9 V^1/2   
        toxm=  4.148e-09 m            dtoxcv=          0 m       
         vfb=    -0.9693 V            alpha1=          0 1/V     
        ijth=        0.1 A              noff=      3.621         
      voffcv=    -0.1372                 tcj=   0.000792 1/K     
       tcjsw=      1e-05 1/K          tcjswg=          0 1/K     
         tpb=  0.0012287 V/K           tpbsw=          0 V/K     
      tpbswg=          0 V/K             llc=          0         
         lwc=          0                lwlc=          0         
         wlc=          0                 wwc=          0         
        wwlc=          0                tnom=     303.15 K       
         kt1=    -0.2357 V              kt1l=          0         
         kt2=      -0.02                 ute=      -1.25         
         ua1=    5.5e-10 m/V             ub1=     -2e-19 (m/V)^2 
         uc1=   -3.5e-12 m/V^2            at=      31512 m/s     
         prt=    -8.0505         
         using Berkeley noise model       noiMod=          2         
        noia=1.87794e+20                noib=    51258.8         
        noic=-5.97434e-13                  em=    4.1e+07         
          ef=   0.843936                  af=          1         
          kf=          0              gdsnoi=-1.23457e-29         
         using Berkeley diodes          not using ACM  
         acm=        12                 hdif=         0 meter    
        ldif=         0 meter             js=   0.00275 amp/m^2  
         jsw=     6e-10 amp/m            xti=         2          
          nj=    1.2928                   cj=0.00133975 f/m^2    
          mj=      0.44                   pb=     0.729 V        
        cjsw=3.67354e-11 f/m             mjsw=    0.0009          
         php (not used)                  pbsw=       0.2 V        
      cjgate (not used)                 cjswg=2.38233e-10 f/m      
       mjswg=       0.8                pbswg=   0.95578 V        
 Model file: /home/tdene/Public/skywater-src-nda/s8_spice_models/pshort.pm3
 Model line:           20
 Model Name: pshort.0  
 BSIM4 Model (Level 54)
    MOBMOD = 0
    BINUNIT = 2
    PARAMCHK = 1
    CAPMOD = 2
    DIOMOD = 1
    RDSMOD = 0
    TRNQSMOD = 0
    ACNQSMOD = 0
    RBODYMOD = 1
    RGATEMOD = 0
    PERMOD = 1
    GEOMOD = 0
    RGEOMOD = 0
    FNOIMOD = 1
    TNOIMOD = 1
    IGCMOD = 0
    IGBMOD = 0
    STIMOD = 1
    VBFWDMOD = 0
    VERSION =    4.5 
    TOXREF = 4.23e-09 
    TOXE = 4.23e-09 
    TOXP = 4.23e-09 
    TOXM = 4.23e-09 
    DTOX =      0 
    EPSROX =    3.9 
    CDSC = 0.00013 
    CDSCB = 0.00078 
    CDSCD =      0 
    CIT =  1e-05 
    NFACTOR =  2.561 
    XJ = 1.5e-07 
    VSAT = 8.504e+04 
    A0 = 0.9129 
    AGS =   1.25 
    A1 =      0 
    A2 = 0.8737 
    AT = 5.094e+04 
    KETA = -0.02046 
    NSUB =  6e+16 
    NDEP = 1.7e+17 
    NSD =  1e+20 
    NGATE =  1e+23 
    GAMMA1 =      0 
    GAMMA2 =      0 
    VBX =      0 
    VBM =     -3 
    XT = 1.55e-07 
    K1 =  1.315 
    KT1 = -0.7098 
    KT1L =      0 
    KT2 =  -0.12 
    K2 = -0.2974 
    K3 = -15.85 
    K3B =      2 
    LPE0 =      0 
    LPEB =      0 
    DVTP0 =      0 
    DVTP1 =      0 
    W0 =      0 
    DVT0 =  4.495 
    DVT1 =  0.294 
    DVT2 =  0.015 
    DVT0W = -4.977 
    DVT1W = 1.147e+06 
    DVT2W = -0.00896 
    DROUT =      1 
    DSUB =   0.26 
    VTH0 = -1.029 
    EU =   1.67 
    UA = -2.453e-09 
    UA1 = 1.83e-10 
    UB = 2.308e-18 
    UB1 = 3.689e-19 
    UC = 1.613e-13 
    UC1 = 6.448e-12 
    U0 = 0.002903 
    UTE = -0.2124 
    VOFF = -0.3667 
    VOFFL =      0 
    MINV =      0 
    FPROUT =      0 
    PDITS =      0 
    PDITSD =      0 
    PDITSL =      0 
    DELTA =   0.01 
    RDSW =  547.9 
    RDSWMIN =      0 
    RDWMIN =      0 
    RSWMIN =      0 
    RDW =      0 
    RSW =      0 
    PRWG = 0.1376 
    PRWB = -0.3235 
    PRT =      0 
    ETA0 = 0.2106 
    ETAB = -0.01473 
    PCLM = 0.6163 
    PDIBLC1 = 0.1422 
    PDIBLC2 = 0.002651 
    PDIBLCB = -0.1519 
    PSCBE1 =  8e+08 
    PSCBE2 = 9.179e-09 
    PVAG =      0 
    WR =      1 
    DWG = -5.722e-09 
    DWB = -1.786e-08 
    XW =      0 
    XWREF =      0 
    XL =      0 
    XLREF =      0 
    B0 =      0 
    B1 =      0 
    ALPHA0 =  1e-10 
    ALPHA1 =  1e-10 
    AGIDL = 4.008e-10 
    BGIDL =  1e+09 
    CGIDL =    300 
    PHIN =      0 
    EGIDL =    0.1 
    AIGC =   0.43 
    BIGC =  0.054 
    CIGC =  0.075 
    AIGSD =   0.43 
    BIGSD =  0.054 
    CIGSD =  0.075 
    AIGBACC =   0.43 
    BIGBACC =  0.054 
    CIGBACC =  0.075 
    AIGBINV =   0.35 
    BIGBINV =   0.03 
    CIGBINV =  0.006 
    NIGC =      1 
    NIGBINV =      3 
    NIGBACC =      1 
    NTOX =      1 
    EIGBINV =    1.1 
    PIGCD =      1 
    POXEDGE =      1 
    XRCRG1 =     12 
    TNOIA = 2.5e+07 
    TNOIB =      0 
    NTNOI =      1 
    XRCRG2 =      1 
    BETA0 =  7.938 
    IJTHDFWD =    0.1 
    IJTHSFWD =    0.1 
    IJTHDREV =    0.1 
    IJTHSREV =    0.1 
    XJBVD =      1 
    XJBVS =      1 
    BVD =  12.69 
    BVS =  12.69 
    VFB =     -1 
    GBMIN =  1e-12 
    RBDB =     50 
    RBPB =     50 
    RBSB =     50 
    RBPS =     50 
    RBPD =     50 
    CGSL = 9.548e-12 
    CGDL = 9.548e-12 
    CKAPPAS =    0.6 
    CKAPPAD =    0.6 
    CF = 1.2e-11 
    CLC =  1e-07 
    CLE =    0.6 
    DWC =      0 
    DLC = -1.399e-08 
    DLCIG =      0 
    DWJ =      0 
    VFBCV = -0.1447 
    ACDE =    0.8 
    MOIN =  18.13 
    NOFF =    3.9 
    VOFFCV = -0.107 
    DMCG =      0 
    DMCI =      0 
    DMDG =      0 
    DMCGT =      0 
    XGW =      0 
    XGL =      0 
    RSHG =    0.1 
    NGCON =      1 
    TCJ = 0.001241 
    TPB = 0.002039 
    TCJSW = 0.0003736 
    TPBSW = 0.001246 
    TCJSWG =  2e-12 
    TPBSWG =      0 
    SK0 =      0 
    SK1 =      0 
    SK2 =      0 
    SL =  2e-06 
    SW =  2e-06 
    K =      0 
    TNOM =  303.1 
    CGSO = 5.249e-11 
    CGDO = 5.249e-11 
    CGBO =      0 
    XPART =      0 
    RSH =      1 
    JSS = 2.148e-05 
    JSWS = 8.04e-10 
    JSWGS =      0 
    PBS = 0.6587 
    MJS = 0.3463 
    PBSWS = 0.7418 
    MJSWS = 0.2978 
    CJS = 0.000738 
    CJSWS = 9.889e-11 
    NJS =  1.363 
    PBSWGS =  1.434 
    MJSWGS = 0.9274 
    CJSWGS = 2.392e-10 
    XTIS =    5.2 
    JSD = 2.148e-05 
    JSWD = 8.04e-10 
    JSWGD =      0 
    PBD = 0.6587 
    MJD = 0.3463 
    PBSWD = 0.7418 
    MJSWD = 0.2978 
    CJD = 0.000738 
    CJSWD = 9.889e-11 
    NJD =  1.363 
    PBSWGD =  1.434 
    MJSWGD = 0.9274 
    CJSWGD = 2.392e-10 
    XTID =    5.2 
    LMLT =      1 
    WMLT =      1 
    LINT = -1.399e-08 
    LL =      0 
    LLC =      0 
    LLN =      1 
    LW =      0 
    LWC =      0 
    LWN =      1 
    LWL =      0 
    LWLC =      0 
    LMIN = 1.45e-07 
    LMAX = 1.55e-07 
    WINT = 7.304e-09 
    WL =      0 
    WLC =      0 
    WLN =      1 
    WW =      0 
    WWC =      0 
    WWN =      1 
    WWL =      0 
    WWLC =      0 
    WMIN = 1.255e-06 
    WMAX = 1.265e-06 
    NOIA = 1.5e+42 
    NOIB =      0 
    NOIC =      0 
    EM = 4.1e+07 
    EF =      1 
    AF =      1 
    KF =      0 
    TRS =      0 
    TRD =      0 
    TEMPMOD  =      0 
    LAMBDA   =      0 
    VTL      =      0 m/s
    LC       =  5e-09 
    XN       =      3 
    LLAMBDA  =      0 
    LVTL     =      0 
    LXN      =      0 
    WLAMBDA  =      0 
    WVTL     =      0 
    WXN      =      0 
    PLAMBDA  =      0 
    PVTL     =      0 
    PXN      =      0 
    RNOIA    =   0.69 
    RNOIB    =   0.34 
    SAREF(SA0) = 1.04e-06 m
    SBREF(SB0) = 1.04e-06 m
    WLOD     =      0 m
    KU0      = 4.5e-08 1/m
    KVSAT    =    0.5 
    KVTH0    = 3.29e-08 m
    TKU0     =      0 
    LLODKU0  =      0 
    WLODKU0  =      1 
    LLODVTH  =      0 
    WLODVTH  =      1 
    LKU0     =      0 
    WKU0     = 2.5e-07 
    PKU0     =      0 
    LKVTH0   =      0 
    WKVTH0   =  2e-07 
    PKVTH0   =      0 
    STK2     =      0 
    LODK2    =      1 
    STETA0   =      0 
    LODETA0  =      1 
    LXRCRG1  =      0 
    WXRCRG1  =      0 
    PXRCRG1  =      0 
    LXRCRG2  =      0 
    WXRCRG2  =      0 
    PXRCRG2  =      0 
     *** UCB's BSIM4.4.0 new diode model is activated. ***
    *** UCB's Diode Model Parameters ***
    JTSS         =      0 
    JTSSWS       =      0 
    JTSSWGS      =      0 
    JTSD         =      0 
    JTSSWD       =      0 
    JTSSWGD      =      0 
    NJTS         =     20 
    NJTSSW       =     20 
    NJTSSWG      =     20 
    XTSS         =   0.02 
    XTSSWS       =   0.02 
    XTSSWGS      =   0.02 
    XTSD         =   0.02 
    XTSSWD       =   0.02 
    XTSSWGD      =   0.02 
    TNJTS        =      0 
    TNJTSSW      =      0 
    TNJTSSWG     =      0 
    VFBSDOFF     =      0 
    LVFBSDOFF    =      0 
    WVFBSDOFF    =      0 
    PVFBSDOFF    =      0 
    LINTNOI      = -2e-07 
    VTSS         =     10 
    VTSD         =     10 
    VTSSWS       =     10 
    VTSSWD       =     10 
    VTSSWGS      =     10 
    VTSSWGD      =     10 
    TTDIOMOD     =      1 
     *** UCB's BSIM4.5.0 new model is activated. ***
    UD         =      0 
    UD1        =      0 
    UP         =      0 
    LP         =      1 
    TVOFF      =      0 
    TVFBSDOFF  =      0 
    RBPS0      =     50 
    RBPSL      =      0 
    RBPSW      =      0 
    RBPSNF     =      0 
    RBPD0      =     50 
    RBPDL      =      0 
    RBPDW      =      0 
    RBPDNF     =      0 
    RBPBX0     =    100 
    RBPBXL     =      0 
    RBPBXW     =      0 
    RBPBXNF    =      0 
    RBPBY0     =    100 
    RBPBYL     =      0 
    RBPBYW     =      0 
    RBPBYNF    =      0 
    RBSBX0     =    100 
    RBSBY0     =    100 
    RBDBX0     =    100 
    RBDBY0     =    100 
    RBSDBXL    =      0 
    RBSDBXW    =      0 
    RBSDBXNF   =      0 
    RBSDBYL    =      0 
    RBSDBYW    =      0 
    RBSDBYNF   =      0 
    LUD        =      0 
    LUD1       =      0 
    LUP        =      0 
    LLP        =      0 
    LTVOFF     =      0 
    LTVFBSDOFF =      0 
    WUD        =      0 
    WUD1       =      0 
    WUP        =      0 
    WLP        =      0 
    WTVOFF     =      0 
    WTVFBSDOFF =      0 
    PUD        =      0 
    PUD1       =      0 
    PUP        =      0 
    PLP        =      0 
    PTVOFF     =      0 
    PTVFBSDOFF =      0 
    WEB        =      0 
    WEC        =      0 
    KVTH0WE    =      0 
    K2WE       =      0 
    KU0WE      =      0 
    SCREF      =  1e-06 
    WPEMOD     =      0 
    LKVTH0WE   =      0 
    LK2WE      =      0 
    LKU0WE     =      0 
    WKVTH0WE   =      0 
    WK2WE      =      0 
    WKU0WE     =      0 
    PKVTH0WE   =      0 
    PK2WE      =      0 
    PKU0WE     =      0 
 Model file: /home/tdene/Public/skywater-src-nda/s8_spice_models/nshort.pm3
 Model line:        16340
 Model Name: nshort.54  
 BSIM4 Model (Level 54)
    MOBMOD = 0
    BINUNIT = 2
    PARAMCHK = 1
    CAPMOD = 2
    DIOMOD = 1
    RDSMOD = 0
    TRNQSMOD = 0
    ACNQSMOD = 0
    RBODYMOD = 1
    RGATEMOD = 0
    PERMOD = 1
    GEOMOD = 0
    RGEOMOD = 0
    FNOIMOD = 1
    TNOIMOD = 1
    IGCMOD = 0
    IGBMOD = 0
    STIMOD = 1
    VBFWDMOD = 0
    VERSION =    4.5 
    TOXREF = 4.148e-09 
    TOXE = 4.148e-09 
    TOXP = 4.148e-09 
    TOXM = 4.148e-09 
    DTOX =      0 
    EPSROX =    3.9 
    CDSC =      0 
    CDSCB =      0 
    CDSCD = 0.002052 
    CIT =      0 
    NFACTOR =  2.594 
    XJ = 1.5e-07 
    VSAT = 1.886e+05 
    A0 =    1.5 
    AGS =   1.25 
    A1 =      0 
    A2 = 0.4239 
    AT = 5.372e+04 
    KETA = -0.03892 
    NSUB =  6e+16 
    NDEP = 1.7e+17 
    NSD =  1e+20 
    NGATE =  1e+23 
    GAMMA1 =      0 
    GAMMA2 =      0 
    VBX =      0 
    VBM =     -3 
    XT = 1.55e-07 
    K1 = 0.9071 
    KT1 = -0.241 
    KT1L =      0 
    KT2 = -0.02888 
    K2 = -0.1344 
    K3 =      2 
    K3B =   0.54 
    LPE0 = 1.033e-07 
    LPEB = -7.082e-08 
    DVTP0 =      0 
    DVTP1 =      0 
    W0 =      0 
    DVT0 =      0 
    DVT1 =   0.53 
    DVT2 = -0.032 
    DVT0W =  -3.58 
    DVT1W = 1.671e+06 
    DVT2W =  0.068 
    DROUT = 0.5033 
    DSUB = 0.4887 
    VTH0 = 0.4188 
    EU =   1.67 
    UA = -1.18e-09 
    UA1 = -2.385e-11 
    UB = 2.341e-18 
    UB1 = 7.078e-19 
    UC = 8.399e-11 
    UC1 = 1.472e-10 
    U0 = 0.0294 
    UTE = -1.248 
    VOFF = -0.2075 
    VOFFL = 5.82e-09 
    MINV =      0 
    FPROUT =      0 
    PDITS =      0 
    PDITSD =      0 
    PDITSL =      0 
    DELTA =   0.01 
    RDSW =  65.97 
    RDSWMIN =      0 
    RDWMIN =      0 
    RSWMIN =      0 
    RDW =      0 
    RSW =      0 
    PRWG = 0.02151 
    PRWB =      0 
    PRT =      0 
    ETA0 = 0.0005676 
    ETAB = -0.044 
    PCLM = 0.1598 
    PDIBLC1 =  0.357 
    PDIBLC2 = 0.008406 
    PDIBLCB = -0.1033 
    PSCBE1 = 7.914e+08 
    PSCBE2 =  1e-12 
    PVAG =      0 
    WR =      1 
    DWG =      0 
    DWB =      0 
    XW =      0 
    XWREF =      0 
    XL =      0 
    XLREF =      0 
    B0 =      0 
    B1 =      0 
    ALPHA0 =  3e-08 
    ALPHA1 =   0.85 
    AGIDL =      0 
    BGIDL = 2.3e+09 
    CGIDL =    0.5 
    PHIN =      0 
    EGIDL =    0.8 
    AIGC =   0.43 
    BIGC =  0.054 
    CIGC =  0.075 
    AIGSD =   0.43 
    BIGSD =  0.054 
    CIGSD =  0.075 
    AIGBACC =      1 
    BIGBACC =      0 
    CIGBACC =      0 
    AIGBINV =   0.35 
    BIGBINV =   0.03 
    CIGBINV =  0.006 
    NIGC =      0 
    NIGBINV =      0 
    NIGBACC =      0 
    NTOX =      1 
    EIGBINV =    1.1 
    PIGCD =      1 
    POXEDGE =      1 
    XRCRG1 =     12 
    TNOIA = 1.5e+07 
    TNOIB = 9.9e+06 
    NTNOI =      1 
    XRCRG2 =      1 
    BETA0 =  13.85 
    IJTHDFWD =    0.1 
    IJTHSFWD =    0.1 
    IJTHDREV =    0.1 
    IJTHSREV =    0.1 
    XJBVD =      1 
    XJBVS =      1 
    BVD =   11.7 
    BVS =   11.7 
    VFB =     -1 
    GBMIN =  1e-12 
    RBDB =     50 
    RBPB =     50 
    RBSB =     50 
    RBPS =     50 
    RBPD =     50 
    CGSL =      0 
    CGDL =      0 
    CKAPPAS =    0.6 
    CKAPPAD =    0.6 
    CF = 1.407e-12 
    CLC =  1e-07 
    CLE =    0.6 
    DWC =      0 
    DLC = 1.193e-08 
    DLCIG =      0 
    DWJ =      0 
    VFBCV =     -1 
    ACDE =    0.4 
    MOIN =    6.9 
    NOFF =  3.404 
    VOFFCV = -0.1729 
    DMCG =      0 
    DMCI =      0 
    DMDG =      0 
    DMCGT =      0 
    XGW =      0 
    XGL =      0 
    RSHG =    0.1 
    NGCON =      1 
    TCJ = 0.000792 
    TPB = 0.001229 
    TCJSW =  1e-05 
    TPBSW =      0 
    TCJSWG =      0 
    TPBSWG =      0 
    SK0 =      0 
    SK1 =      0 
    SK2 =      0 
    SL =  2e-06 
    SW =  2e-06 
    K =      0 
    TNOM =  303.1 
    CGSO = 2.449e-10 
    CGDO = 2.449e-10 
    CGBO =  1e-13 
    XPART =      0 
    RSH =      1 
    JSS = 0.00275 
    JSWS =  6e-10 
    JSWGS =      0 
    PBS =  0.729 
    MJS =   0.44 
    PBSWS =    0.2 
    MJSWS = 0.0009 
    CJS = 0.00134 
    CJSWS = 3.674e-11 
    NJS =  1.293 
    PBSWGS = 0.9558 
    MJSWGS =    0.8 
    CJSWGS = 2.382e-10 
    XTIS =      2 
    JSD = 0.00275 
    JSWD =  6e-10 
    JSWGD =      0 
    PBD =  0.729 
    MJD =   0.44 
    PBSWD =    0.2 
    MJSWD = 0.0009 
    CJD = 0.00134 
    CJSWD = 3.674e-11 
    NJD =  1.293 
    PBSWGD = 0.9558 
    MJSWGD =    0.8 
    CJSWGD = 2.382e-10 
    XTID =      2 
    LMLT =      1 
    WMLT =      1 
    LINT = 1.193e-08 
    LL =      0 
    LLC =      0 
    LLN =      1 
    LW =      0 
    LWC =      0 
    LWN =      1 
    LWL =      0 
    LWLC =      0 
    LMIN = 1.49e-07 
    LMAX = 1.51e-07 
    WINT = 2.186e-08 
    WL =      0 
    WLC =      0 
    WLN =      1 
    WW =      0 
    WWC =      0 
    WWN =      1 
    WWL =      0 
    WWLC =      0 
    WMIN = 5.19e-07 
    WMAX = 5.21e-07 
    NOIA = 2.5e+42 
    NOIB =      0 
    NOIC =      0 
    EM = 4.1e+07 
    EF =   0.84 
    AF =      1 
    KF =      0 
    TRS =      0 
    TRD =      0 
    TEMPMOD  =      0 
    LAMBDA   =      0 
    VTL      =      0 m/s
    LC       =  5e-09 
    XN       =      3 
    LLAMBDA  =      0 
    LVTL     =      0 
    LXN      =      0 
    WLAMBDA  =      0 
    WVTL     =      0 
    WXN      =      0 
    PLAMBDA  =      0 
    PVTL     =      0 
    PXN      =      0 
    RNOIA    =   0.94 
    RNOIB    =   0.26 
    SAREF(SA0) = 1.04e-06 m
    SBREF(SB0) = 1.04e-06 m
    WLOD     =      0 m
    KU0      = -2.7e-08 1/m
    KVSAT    =    0.2 
    KVTH0    = 9.8e-09 m
    TKU0     =      0 
    LLODKU0  =      0 
    WLODKU0  =      1 
    LLODVTH  =      0 
    WLODVTH  =      1 
    LKU0     =      0 
    WKU0     =      0 
    PKU0     =      0 
    LKVTH0   =      0 
    WKVTH0   =  2e-07 
    PKVTH0   =      0 
    STK2     =      0 
    LODK2    =      1 
    STETA0   =      0 
    LODETA0  =      1 
    LXRCRG1  =      0 
    WXRCRG1  =      0 
    PXRCRG1  =      0 
    LXRCRG2  =      0 
    WXRCRG2  =      0 
    PXRCRG2  =      0 
     *** UCB's BSIM4.4.0 new diode model is activated. ***
    *** UCB's Diode Model Parameters ***
    JTSS         =      0 
    JTSSWS       =      0 
    JTSSWGS      =      0 
    JTSD         =      0 
    JTSSWD       =      0 
    JTSSWGD      =      0 
    NJTS         =     20 
    NJTSSW       =     20 
    NJTSSWG      =     20 
    XTSS         =   0.02 
    XTSSWS       =   0.02 
    XTSSWGS      =   0.02 
    XTSD         =   0.02 
    XTSSWD       =   0.02 
    XTSSWGD      =   0.02 
    TNJTS        =      0 
    TNJTSSW      =      0 
    TNJTSSWG     =      0 
    VFBSDOFF     =      0 
    LVFBSDOFF    =      0 
    WVFBSDOFF    =      0 
    PVFBSDOFF    =      0 
    LINTNOI      = -1e-07 
    VTSS         =     10 
    VTSD         =     10 
    VTSSWS       =     10 
    VTSSWD       =     10 
    VTSSWGS      =     10 
    VTSSWGD      =     10 
    TTDIOMOD     =      1 
     *** UCB's BSIM4.5.0 new model is activated. ***
    UD         =      0 
    UD1        =      0 
    UP         =      0 
    LP         =      1 
    TVOFF      =      0 
    TVFBSDOFF  =      0 
    RBPS0      =     50 
    RBPSL      =      0 
    RBPSW      =      0 
    RBPSNF     =      0 
    RBPD0      =     50 
    RBPDL      =      0 
    RBPDW      =      0 
    RBPDNF     =      0 
    RBPBX0     =    100 
    RBPBXL     =      0 
    RBPBXW     =      0 
    RBPBXNF    =      0 
    RBPBY0     =    100 
    RBPBYL     =      0 
    RBPBYW     =      0 
    RBPBYNF    =      0 
    RBSBX0     =    100 
    RBSBY0     =    100 
    RBDBX0     =    100 
    RBDBY0     =    100 
    RBSDBXL    =      0 
    RBSDBXW    =      0 
    RBSDBXNF   =      0 
    RBSDBYL    =      0 
    RBSDBYW    =      0 
    RBSDBYNF   =      0 
    LUD        =      0 
    LUD1       =      0 
    LUP        =      0 
    LLP        =      0 
    LTVOFF     =      0 
    LTVFBSDOFF =      0 
    WUD        =      0 
    WUD1       =      0 
    WUP        =      0 
    WLP        =      0 
    WTVOFF     =      0 
    WTVFBSDOFF =      0 
    PUD        =      0 
    PUD1       =      0 
    PUP        =      0 
    PLP        =      0 
    PTVOFF     =      0 
    PTVFBSDOFF =      0 
    WEB        =      0 
    WEC        =      0 
    KVTH0WE    =      0 
    K2WE       =      0 
    KU0WE      =      0 
    SCREF      =  1e-06 
    WPEMOD     =      0 
    LKVTH0WE   =      0 
    LK2WE      =      0 
    LKU0WE     =      0 
    WKVTH0WE   =      0 
    WK2WE      =      0 
    WKU0WE     =      0 
    PKVTH0WE   =      0 
    PK2WE      =      0 
    PKU0WE     =      0 
 ***************************************************************************
 ***        model parameters  model name:   0:ppu.0            model type:pmos   ***
 ***************************************************************************

   *** general parameters ***
    deriv=   0.           

   ***  level 49  model parameters  ***

      hspver=    2006.03               level=         49         
     version=        3.2            paramchk=          0         
      apwarn=          1                lite=          0         
      vgslim=          0             binUnit=          2         
      capMod=          3               xpart=          0         
      mobMod=          1              nqsMod=          0         
      stiMod=          0                 elm=          0         
    sfvtflag=          0                 tox=  4.214e-09 meter   
          xj=   1.15e-07 meter       binflag=          0         
        lmin=  1.495e-07 meter          lmax=  1.505e-07 meter   
        wmin=  1.395e-07 meter          wmax=  1.405e-07 meter   
        lref=          0 meter          wref=          0 meter   
        lint=          0 meter          wint=          0 meter   
       lmult=          1               wmult=          1         
          ll=          0                 lln=          1         
          lw=          0                 lwn=          1         
         lwl=          0                  wl=          0         
         wln=          1                  ww=          0         
         wwn=          1                 wwl=          0         
         dwg=          0 m/V             dwb=          0 m/V^1/2 
          xl=          0                  xw=          0         
          a0=     1.6572                 ags=    0.01944 V^-1    
          b0=          0 meter            b1=          0 meter   
        keta=   0.032965 V^-1           voff=   -0.17082 V       
       ngate=      1e+23 cm^-3           vbx=          0 V       
         vbm=         -3 V                xt=   1.55e-07 meter   
        vth0=  -0.878406 V               nch=7.91926e+17 cm^-3   
        nsub=      6e+16 cm^-3           nlx=          0 meter   
      gamma1=          0 V^-1/2       gamma2=          0 V^-1/2  
          k1=    0.48313 V^1/2            k2=  -0.086211         
          k3=          0                 k3b=          0 V^-1    
          w0=      1e-10 meter          dvt0=          0         
        dvt1=      1e-10                dvt2=          0 V^-1    
       dvt0w=          0 meter^-1      dvt1w=      10001 meter^-1
       dvt2w=          0 V^-1           dsub=      1e-10         
        eta0=      0.001                etab=          0 V^-1    
          u0= 0.00341192 m^2/V/sec         ua=-1.5724e-09 m/V     
          ub= 1.0206e-18 (m/V)^2          uc=-2.1234e-11 V^-1    
        vsat=     100410 m/sec            a1=          0 v^-1    
          a2=        0.4               delta=   0.071729 V       
        rdsw=    659.884 ohm-um         prwg=          0 V^-1    
        prwb=          0 V^-1/2           wr=          1         
        pclm=     2.4129             pdiblc1=          0         
     pdiblc2=  0.0238053             pdiblcb=       -0.5 V^-1    
      pscbe1= 7.0054e+08 V/m          pscbe2=      1e-20 V/m     
       drout=      1e-10                pvag=          0         
     nfactor=          2                cdsc=          0 f/m^2   
       cdscb=     0.0005 f/V/m^2       cdscd=          0 f/V/m^2 
         cit=     -0.002 f/m^2        alpha0= 1.3735e-06 m/V     
       beta0=     23.765 V               dlc=   5.67e-09 meter   
         dwc=          0 meter           clc=      1e-07 meter   
         cle=        0.6                cgso=1.34038e-10 f/m     
        cgdo=1.34038e-10 f/m            cgbo=          0 f/m     
        cgsl=9.54827e-12 f/m            cgdl=9.54827e-12 f/m     
      ckappa=        0.6                  cf=    1.2e-11 f/m     
        acde=      0.401 m/V            moin=      18.13 V^1/2   
        toxm=  4.214e-09 m            dtoxcv=          0 m       
         vfb=  -0.387269 V            alpha1=          0 1/V     
        ijth=        0.1 A              noff=        3.9         
      voffcv=   -0.10701                 tcj=  0.0012407 1/K     
       tcjsw= 0.00037357 1/K          tcjswg=      2e-12 1/K     
         tpb=  0.0020386 V/K           tpbsw=   0.001246 V/K     
      tpbswg=          0 V/K             llc=          0         
         lwc=          0                lwlc=          0         
         wlc=          0                 wwc=          0         
        wwlc=          0                tnom=     303.15 K       
         kt1=   -0.50219 V              kt1l=          0         
         kt2=  -0.048934                 ute=       -0.8         
         ua1=-4.1272e-11 m/V             ub1= 4.0968e-19 (m/V)^2 
         uc1= 1.2689e-11 m/V^2            at=     3000.3 m/s     
         prt=    0.49191         
         using Berkeley noise model       noiMod=          1         
        noia=    9.9e+18                noib=       2400         
        noic=    1.4e-12                  em=    4.1e+07         
          ef=          1                  af=          1         
          kf=          0              gdsnoi=-1.23457e-29         
         using Berkeley diodes          not using ACM  
         acm=        12                 hdif=         0 meter    
        ldif=         0 meter             js=2.1483e-05 amp/m^2  
         jsw=  8.04e-10 amp/m            xti=       5.2          
          nj=    1.3632                   cj=0.000738019 f/m^2    
          mj=   0.34629                   pb=    0.6587 V        
        cjsw=9.88889e-11 f/m             mjsw=   0.29781          
         php (not used)                  pbsw=    0.7418 V        
      cjgate (not used)                 cjswg=2.3894e-10 f/m      
       mjswg=    0.9274                pbswg=    1.4338 V        
 

 Warning: Pd = 0 is less than Weff = 1.4e-07 in BSIM3 model 0:npass.0 element m_1 with W = 1.4e-07, L = 1.5e-07

  **warning** (sram1.spice:48) Unable to find referenced node vwl; Output variable ignored. Specify a valid node.
  

  **warning** the following singular supplies were terminated to 1 meg resistor 
          supply       node1            node2
(sram1.spice:22)vwwl42                  0:a                defined in subckt 0                     0:0                defined in subckt 0               
             
 Warning:'1 connection nodes' occurs 1 times
 Summary of 1 connection from the following nodes:
 -----------------------
 |Node      |Subckt    |
 |----------+----------|
 |rbl1      |0         |
 -----------------------
              
      
 **info** set option symb=1 internally to help for convergence.
 *****************************************************************
 ******  option summary
 ******
 runlvl  = 3         bypass  = 2.0000    
  Opening plot unit= 15
 file=sram1.pa0

 **info** dc convergence successful at Newton-Raphson method 
 ******  
 *

 ****** operating point information tnom=  25.000 temp=  25.000 ******
 ****** operating point status is all       simulation time is     0.     
    node    =voltage      node    =voltage      node    =voltage

 +0:a       =   0.      0:net_1   =   0.      0:net_2   =-1.052e-22
 +0:net_3   =   0.      0:net_4   = 442.8792m 0:out1    =   1.8000 
 +0:out2    =  70.8816n 0:rbl0    = 1.387e-20 0:rbl1    =-2.571e-28
 +0:rwl0    =   0.      0:rwl1    =   0.      0:vdd     =   1.8000 
 +0:wbl     =   0.      0:wblb    =   1.8000  0:wwl     =   0.     
 +1:vdd     = 442.8792m 2:vdd     =   0.     


 maximum nodal capacitance=   4.679E-15         on node     0:vdd             

    nodal  capacitance table 

    node    =    cap      node    =    cap      node    =    cap

 +0:a       =   0.      0:net_1   = 527.3294a 0:net_2   = 109.3427a
 +0:net_3   = 109.7278a 0:net_4   = 630.4811a 0:out1    =   3.5009f
 +0:out2    = 933.5500a 0:rbl0    =   2.4429f 0:rbl1    =  66.0937a
 +0:rwl0    = 187.5569a 0:rwl1    = 187.5569a 0:vdd     =   4.6793f
 +0:wbl     =  48.8671a 0:wblb    =  44.2888a 0:wwl     = 250.1303a
 +1:vdd     =  55.0032a 2:vdd     = 122.6282a

 

 **** voltage sources

 subckt                                                                    
 element  0:vrwl0    0:vrwl1    0:vvdd     0:vwbl     0:vwblb    0:vwwl    
  volts      0.         0.         1.8000     0.         1.8000     0.     
  current    0.         0.       -53.6172p    0.        -3.1671p    0.     
  power      0.         0.        96.5110p    0.         5.7008p    0.     

 subckt             
 element  0:vwwl42  
  volts      0.     
  current    0.     
  power      0.     

     total voltage source power dissipation=  102.2119p       watts




 **** mosfets


 subckt                                                                    
 element  0:m_1      0:m_2      0:m_3      0:m_4      0:m_5      0:m_6     
 model    0:npass.0  0:npass.0  0:npd.0    0:npass.0  0:npd.0    0:npass.0 
 region   Cutoff     Cutoff     Cutoff     Cutoff     Cutoff     Subth     
  id         0.         1.3529a    0.         0.         0.         0.     
  ibs        0.       -10.0000f    0.         0.         0.         0.     
  ibd        0.       -10.0000f    0.         0.         0.         0.     
  vgs        0.      -442.8792m -1.387e-20  1.052e-22    0.       442.8792m
  vds        0.         1.3571  -1.398e-20  1.052e-22 -2.571e-28    0.     
  vbs        0.      -442.8792m -1.387e-20  1.052e-22    0.         0.     
  vth      681.6529m  703.2632m  743.9195m  681.6529m  743.9195m  681.6529m
  vdsat     43.1954m   45.5089m   49.0031m   43.1954m   49.0031m   44.0727m
  vod     -681.6529m   -1.1461  -743.9195m -681.6529m -743.9195m -238.7738m
  beta     186.4353u  191.3829u  351.0012u  186.4353u  351.0012u  186.4993u
  gam eff  777.3202m  830.0024m  704.6953m  777.3202m  704.6953m  777.3202m
  gm         0.        33.7441a    0.         0.         0.         0.     
  gds        7.3617p    1.1801a  128.4175f    7.3617p  128.4175f  162.9951n
  gmb        0.         7.4258a    0.         0.         0.         0.     
  cdtot     43.2491a   44.2888a   66.0937a   48.8671a   66.0937a   41.5750a
  cgtot    125.5455a  124.5848a  187.5569a  125.5455a  187.5569a  140.4646a
  cstot     48.8671a   44.3178a   68.1528a   43.2491a   68.1528a   89.1639a
  cbtot     36.3693a   35.9813a   54.4889a   36.3693a   54.4889a   31.3710a
  cgs       47.3766a   44.3242a   67.7877a   42.3669a   67.7877a   74.3342a
  cgd       42.3669a   44.2888a   65.4945a   47.3766a   65.4945a   41.5050a



 subckt                                               xinvm      xinvm     
 element  0:m1000    0:m1001    0:m1002    0:m1003    1:m_1      1:m_2     
 model    0:pshort.0 0:nshort.5 0:pshort.0 0:nshort.5 0:ppu.0    0:npd.0   
 region   Linear     Cutoff     Cutoff     Linear     Cutoff     Cutoff    
  id        -1.9130p  112.7394f  -49.1640p   51.7042p -4.464e-27    8.4848f
  ibs     -2.255e-28  1.131e-23 -2.082e-23    0.         0.         0.     
  ibd      4.860e-21   -1.8002p    1.8005p -7.124e-20    0.       -10.0000f
  vgs       -1.8000   1.387e-20   -4.7862n    1.8000  -442.8792m    0.     
  vds       -4.7862n    1.8000    -1.8000    70.8816n  -55.5112a  442.8792m
  vbs        0.         0.         0.         0.         0.         0.     
  vth     -753.2087m  752.2978m -604.3726m  752.4909m -886.6886m  730.6331m
  vdsat   -764.5459m   42.9391m  -43.3463m  387.0035m  -41.1186m   49.0077m
  vod       -1.0468  -752.2978m  604.3726m    1.0475   443.8094m -730.6331m
  beta     457.6220u    1.0308m  330.9057u  788.3199u   51.0388u  350.4406u
  gam eff    1.3152   907.0735m    1.3152   907.0735m  648.3374m  704.6953m
  gm         1.2735p    2.9714p    1.1809n   29.3169p  1.216e-25  234.3822f
  gds      399.6906u  100.5869f  100.4201p  729.4449u   80.4185p   10.9764f
  gmb      402.0840f  800.4441f  325.9685p   11.3431p  3.226e-26   54.8889f
  cdtot      1.5928f  200.2232a  311.6623a  621.8877a   41.9603a   66.4269a
  cgtot      1.9264f  448.3093a  936.6884a  771.1914a   86.2516a  187.4401a
  cstot      1.1036f  273.4425a  545.2962a  408.6600a   18.5182a   66.8972a
  cbtot      1.6316f  405.6454a    1.3988f  470.0144a   36.4850a   54.4664a
  cgs      721.6762a  130.6406a  120.1830a  316.3984a   17.9305a   66.6995a
  cgd      858.3538a  128.0515a   83.1102a  382.3774a   35.3722a   66.4282a



 subckt   xinv       xinv      
 element  2:m_1      2:m_2     
 model    0:ppu.0    0:npd.0   
 region   Cutoff     Subth     
  id         0.         0.     
  ibs        0.         0.     
  ibd        0.         0.     
  vgs      442.8792m  442.8792m
  vds        0.         0.     
  vbs        0.         0.     
  vth     -886.6886m  743.9195m
  vdsat    -41.1152m   49.0929m
  vod        1.3296  -301.0404m
  beta      51.0387u  351.0033u
  gam eff  648.3374m  704.6953m
  gm         0.         0.     
  gds      1.954e-21   23.9277n
  gmb        0.         0.     
  cdtot     21.1555a   63.6877a
  cgtot    143.7554a  193.5560a
  cstot     21.2103a  104.9831a
  cbtot    101.4179a   44.4273a
  cgs       21.1946a   96.5768a
  cgd       21.1568a   57.9392a



 ******
 *

 ****** transient analysis tnom=  25.000 temp=  25.000 ******
x

 time         voltage    voltage    voltage    voltage    
             wwl        rwl0       rwl1       rbl0        
    0.          0.         0.         0.       1.3873e-20 
    1.00000n    0.         0.         0.        42.9412a  
    2.00000n    0.         0.         0.        28.8487a  
    3.00000n    0.         0.         0.       -23.3002a  
    4.00000n    0.         0.         0.       -35.8030a  
    5.00000n    0.         0.         0.       195.2343a  
    6.00000n    1.8000     0.         0.       735.7373n  
    7.00000n    1.8000     0.         0.       772.2773n  
    8.00000n    1.8000     0.         0.       775.2474n  
    9.00000n    1.8000     0.         0.       766.9230n  
   10.00000n    1.8000     0.         0.       775.9298n  
   11.00000n    0.         0.         0.         1.3472u  
   12.00000n    0.         0.         0.         1.3498u  
   13.00000n    0.         0.         0.         1.3499u  
   14.00000n    0.         0.         0.         1.3533u  
   15.00000n    0.         0.         0.         1.3567u  
   16.00000n    1.8000     1.8000     0.        99.6779m  
   17.00000n    1.8000     1.8000     0.        99.6715m  
   18.00000n    1.8000     1.8000     0.        99.6757m  
   19.00000n    1.8000     1.8000     0.        99.6736m  
   20.00000n    1.8000     1.8000     0.        99.6808m  
   21.00000n    1.8000     1.8000     0.        99.6941m  
   22.00000n    1.8000     1.8000     0.        99.6940m  
   23.00000n    1.8000     1.8000     0.        99.6938m  
   24.00000n    1.8000     1.8000     0.        99.6935m  
   25.00000n    1.8000     1.8000     0.        99.6933m  
   26.00000n    1.8000     1.8000     0.        99.6931m  
   27.00000n    1.8000     1.8000     0.        99.6928m  
   28.00000n    1.8000     1.8000     0.        99.6926m  
   29.00000n    1.8000     1.8000     0.        99.6924m  
   30.00000n    1.8000     1.8000     0.        99.6921m  
   31.00000n    1.8000     1.8000     0.        99.6919m  
   32.00000n    1.8000     1.8000     0.        99.6917m  
   33.00000n    1.8000     1.8000     0.        99.6914m  
   34.00000n    1.8000     1.8000     0.        99.6912m  
   35.00000n    1.8000     1.8000     0.        99.6909m  
   36.00000n    1.8000     1.8000     0.        99.6907m  
   37.00000n    1.8000     1.8000     0.        99.6905m  
   38.00000n    1.8000     1.8000     0.        99.6902m  
   39.00000n    1.8000     1.8000     0.        99.6900m  
   40.00000n    1.8000     1.8000     0.        99.6898m  
   41.00000n    1.8000     1.8000     0.        99.6895m  
   42.00000n    1.8000     1.8000     0.        99.6893m  
   43.00000n    1.8000     1.8000     0.        99.6891m  
   44.00000n    1.8000     1.8000     0.        99.6888m  
   45.00000n    1.8000     1.8000     0.        99.6886m  
y
x

 time         voltage    
             rbl1        
    0.       -2.5711e-28 
    1.00000n  5.8649e-24 
    2.00000n -3.6324e-23 
    3.00000n -1.2156e-22 
    4.00000n -1.4185e-22 
    5.00000n  2.3687e-22 
    6.00000n    5.5831m  
    7.00000n    4.0651m  
    8.00000n    2.7967m  
    9.00000n    1.7086m  
   10.00000n  722.9557u  
   11.00000n  -45.1879u  
   12.00000n -748.3875u  
   13.00000n   -1.3753m  
   14.00000n   -1.9513m  
   15.00000n   -2.5273m  
   16.00000n   -6.8652m  
   17.00000n   -6.8646m  
   18.00000n   -6.8639m  
   19.00000n   -6.8638m  
   20.00000n   -6.8633m  
   21.00000n   -6.8633m  
   22.00000n   -6.8630m  
   23.00000n   -6.8627m  
   24.00000n   -6.8625m  
   25.00000n   -6.8622m  
   26.00000n   -6.8619m  
   27.00000n   -6.8617m  
   28.00000n   -6.8614m  
   29.00000n   -6.8612m  
   30.00000n   -6.8609m  
   31.00000n   -6.8607m  
   32.00000n   -6.8604m  
   33.00000n   -6.8601m  
   34.00000n   -6.8599m  
   35.00000n   -6.8596m  
   36.00000n   -6.8594m  
   37.00000n   -6.8591m  
   38.00000n   -6.8589m  
   39.00000n   -6.8586m  
   40.00000n   -6.8583m  
   41.00000n   -6.8581m  
   42.00000n   -6.8578m  
   43.00000n   -6.8576m  
   44.00000n   -6.8573m  
   45.00000n   -6.8571m  
y

          ***** job concluded
 ******  
 *

 ****** job statistics summary tnom=  25.000 temp=  25.000 ******
  
 ******  Machine Information  ******
 CPU:
 model name	: Intel(R) Xeon(R) CPU E5-4617 0 @ 2.90GHz
 cpu MHz	: 2900.000
 CPU(s)		: 12
  
 OS:
 Linux version 3.10.0-1160.42.2.el7.x86_64 (mockbuild@x86-vm-40.build.eng.bos.redhat.com) (gcc version 4.8.5 20150623 (Red Hat 4.8.5-44) (GCC) ) #1 SMP Tue Aug 31 20:15:00 UTC 2021

 System loadavg : 1.43 4.06 5.87 4/3819 82419


  ******  HSPICE Threads Information  ******

  Command Line Threads Count :     1
  Available CPU Count        :    12
  Actual Threads Count       :     1


  ****** Statistics of Ignored Elements ******
  Voltage Sources :       1

  ******  Circuit Statistics  ******
  # nodes       =      30 # elements   =      22
  # resistors   =       1 # capacitors =       0 # inductors   =       0
  # mutual_inds =       0 # vccs       =       0 # vcvs        =       0
  # cccs        =       0 # ccvs       =       0 # volt_srcs   =       7
  # curr_srcs   =       0 # diodes     =       0 # bjts        =       0
  # jfets       =       0 # mosfets    =      14 # U elements  =       0
  # T elements  =       0 # W elements =       0 # B elements  =       0
  # S elements  =       0 # P elements =       0 # va device   =       0
  # vector_srcs =       0 # N elements =       0


  ******  Runtime Statistics (seconds)  ******

  analysis           time    # points   tot. iter  conv.iter
  op point           0.01           1          17
  transient          0.01          46         305          96 rev=        11
  readin             0.28
  errchk             0.01
  setup              0.01
  output             0.00


           peak memory used        639.75 megabytes
           total cpu time            0.34 seconds
           total elapsed time        0.40 seconds
           job started at     10:40:24 12/09/2021
           job ended   at     10:40:24 12/09/2021

>info:         ***** hspice job concluded
           job total runtime         0.40 seconds


 lic: Release hspice token(s) 
 lic: total license checkout elapse time:        0.05(s)
