Using: /programs/synopsys/hspice/current/hspice/linux64/hspice sram1.spice
 ****** PrimeSim HSPICE -- R-2020.12-SP1 linux64 (Apr 10 2021 6983340) ******
  Copyright (c) 1986 - 2021 by Synopsys, Inc. All Rights Reserved.
  This software and the associated documentation are proprietary
  to Synopsys, Inc. This software may only be used in accordance
  with the terms and conditions of a written license agreement with
  Synopsys, Inc. All other use, reproduction, or distribution of
  this software is strictly prohibited.
  Input File: sram1.spice                                                       
  Command line options: /programs/synopsys/hspice/current/hspice/linux64/hspice sram1.spice
  Start time: Thu Dec  9 09:46:56 2021
 lic:  
 lic: FLEXlm: SDK_12.9.5 
 lic: USER:   jstine               HOSTNAME: rivendell.ecen.okstate.edu 
 lic: HOSTID: "2c44fd862b18"       PID:      43530 
 lic: Using FLEXlm license file: 
 lic: 27020@trelaina.ecen.okstate.edu 
 lic: Checkout 1 hspice 
 lic: License/Maintenance for hspice will expire on 27-jan-2022/2020.12 
 lic: 1(in_use)/50(total) FLOATING license(s) on SERVER 27020@trelaina.ecen.okstate.edu 
 lic:   
  **warning** (/home/tdene/Public/skywater-src-nda/s8_spice_models/models.all:10) Unknown option mc_ignore_binning. Check the option name again.
1****** PrimeSim HSPICE -- R-2020.12-SP1 linux64 (Apr 10 2021 6983340) ******
 ******  
 *

 ****** circuit name directory
 circuit number to circuit name directory
   number circuitname                     definition         multiplier
        0 main circuit
        1 xinvm.                          invm               1.00 
        2 xinv.                           invm               1.00 
  **warning** (sram1.spice:13) Both nodes of element vgnd are connected together; Line ignored.
  **info** (sram1.spice:19) DC voltage reset to initial transient source value in source 0:vrwl0. new dc=0.0000D+00
 ***************************************************************************
 ***        model parameters  model name:   0:npass.0          model type:nmos   ***
 ***************************************************************************

   *** general parameters ***
    deriv=   0.           

   ***  level 49  model parameters  ***

      hspver=    2006.03               level=         49         
     version=        3.2            paramchk=          0         
      apwarn=          1                lite=          0         
      vgslim=          0             binUnit=          2         
      capMod=          3               xpart=          0         
      mobMod=          1              nqsMod=          0         
      stiMod=          0                 elm=          0         
    sfvtflag=          0                 tox=  4.148e-09 meter   
          xj=    1.2e-07 meter       binflag=          0         
        lmin=    7.5e-08 meter          lmax=  1.505e-07 meter   
        wmin=  1.395e-07 meter          wmax=  1.405e-07 meter   
        lref=          0 meter          wref=          0 meter   
        lint=          0 meter          wint=          0 meter   
       lmult=          1               wmult=          1         
          ll=          0                 lln=          1         
          lw=          0                 lwn=          1         
         lwl=          0                  wl=          0         
         wln=          1                  ww=          0         
         wwn=          1                 wwl=          0         
         dwg=          0 m/V             dwb=          0 m/V^1/2 
          xl=          0                  xw=          0         
          a0=          1                 ags=     0.5115 V^-1    
          b0=          0 meter            b1=          0 meter   
        keta=  -0.061906 V^-1           voff=   -0.15507 V       
       ngate=      1e+23 cm^-3           vbx=          0 V       
         vbm=         -3 V                xt=   1.55e-07 meter   
        vth0=   0.677612 V               nch=1.12471e+18 cm^-3   
        nsub=      6e+16 cm^-3           nlx=          0 meter   
      gamma1=          0 V^-1/2       gamma2=          0 V^-1/2  
          k1=    0.53066 V^1/2            k2=   -0.12745         
          k3=          0                 k3b=          0 V^-1    
          w0=      1e-06 meter          dvt0=          0         
        dvt1=       0.53                dvt2=          0 V^-1    
       dvt0w=          0 meter^-1      dvt1w=      10100 meter^-1
       dvt2w=          0 V^-1           dsub=        0.5         
        eta0=     0.1168                etab=    0.00804 V^-1    
          u0=  0.0129974 m^2/V/sec         ua=-1.9925e-09 m/V     
          ub= 1.9307e-18 (m/V)^2          uc= 4.5872e-11 V^-1    
        vsat=     101250 m/sec            a1=          0 v^-1    
          a2=          1               delta=     0.0104 V       
        rdsw=    103.211 ohm-um         prwg=        0.2 V^-1    
        prwb=        0.3 V^-1/2           wr=          1         
        pclm=    0.93451             pdiblc1=          0         
     pdiblc2=   0.035291             pdiblcb=   -0.15462 V^-1    
      pscbe1= 7.8166e+08 V/m          pscbe2=      1e-20 V/m     
       drout=        0.5                pvag=          0         
     nfactor=     1.7935                cdsc=          0 f/m^2   
       cdscb=          0 f/V/m^2       cdscd=          0 f/V/m^2 
         cit=          0 f/m^2        alpha0= 0.00064059 m/V     
       beta0=       26.6 V               dlc= 1.8739e-08 meter   
         dwc=          0 meter           clc=      1e-07 meter   
         cle=        0.6                cgso=3.14944e-10 f/m     
        cgdo=3.14944e-10 f/m            cgbo=      1e-13 f/m     
        cgsl=          0 f/m            cgdl=          0 f/m     
      ckappa=        0.6                  cf= 1.4067e-12 f/m     
        acde=        0.4 m/V            moin=        6.9 V^1/2   
        toxm=  4.148e-09 m            dtoxcv=          0 m       
         vfb=    -0.9693 V            alpha1=          0 1/V     
        ijth=        0.1 A              noff=      3.621         
      voffcv=    -0.1372                 tcj=   0.000792 1/K     
       tcjsw=      1e-05 1/K          tcjswg=          0 1/K     
         tpb=  0.0012287 V/K           tpbsw=          0 V/K     
      tpbswg=          0 V/K             llc=          0         
         lwc=          0                lwlc=          0         
         wlc=          0                 wwc=          0         
        wwlc=          0                tnom=     303.15 K       
         kt1=     -0.245 V              kt1l=          0         
         kt2=   -0.01458                 ute=    -1.1259         
         ua1= 3.7209e-10 m/V             ub1=-1.3557e-19 (m/V)^2 
         uc1=  -2.31e-12 m/V^2            at=      25430 m/s     
         prt=          0         
         using Berkeley noise model       noiMod=          2         
        noia=1.87794e+20                noib=    51258.8         
        noic=-5.97434e-13                  em=    4.1e+07         
          ef=   0.843936                  af=          1         
          kf=          0              gdsnoi=-1.23457e-29         
         using Berkeley diodes          not using ACM  
         acm=        12                 hdif=         0 meter    
        ldif=         0 meter             js=   0.00275 amp/m^2  
         jsw=     6e-10 amp/m            xti=         2          
          nj=    1.2928                   cj=0.00133975 f/m^2    
          mj=      0.44                   pb=     0.729 V        
        cjsw=3.67354e-11 f/m             mjsw=    0.0009          
         php (not used)                  pbsw=       0.2 V        
      cjgate (not used)                 cjswg=2.38233e-10 f/m      
       mjswg=       0.8                pbswg=   0.95578 V        
 ***************************************************************************
 ***        model parameters  model name:   0:npd.0            model type:nmos   ***
 ***************************************************************************

   *** general parameters ***
    deriv=   0.           

   ***  level 49  model parameters  ***

      hspver=    2006.03               level=         49         
     version=        3.2            paramchk=          0         
      apwarn=          1                lite=          0         
      vgslim=          0             binUnit=          2         
      capMod=          3               xpart=          0         
      mobMod=          1              nqsMod=          0         
      stiMod=          0                 elm=          0         
    sfvtflag=          0                 tox=  4.148e-09 meter   
          xj=    1.2e-07 meter       binflag=          0         
        lmin=    7.5e-08 meter          lmax=  1.505e-07 meter   
        wmin=  2.095e-07 meter          wmax=  2.105e-07 meter   
        lref=          0 meter          wref=          0 meter   
        lint=          0 meter          wint=          0 meter   
       lmult=          1               wmult=          1         
          ll=          0                 lln=          1         
          lw=          0                 lwn=          1         
         lwl=          0                  wl=          0         
         wln=          1                  ww=          0         
         wwn=          1                 wwl=          0         
         dwg=          0 m/V             dwb=          0 m/V^1/2 
          xl=          0                  xw=          0         
          a0=       -0.1                 ags=       0.02 V^-1    
          b0=          0 meter            b1=          0 meter   
        keta=  -0.019632 V^-1           voff=     -0.139 V       
       ngate=      1e+23 cm^-3           vbx=          0 V       
         vbm=         -3 V                xt=   1.55e-07 meter   
        vth0=   0.740032 V               nch=1.12471e+18 cm^-3   
        nsub=      6e+16 cm^-3           nlx=          0 meter   
      gamma1=          0 V^-1/2       gamma2=          0 V^-1/2  
          k1=      0.498 V^1/2            k2=    -0.1068         
          k3=          0                 k3b=          0 V^-1    
          w0=          0 meter          dvt0=          0         
        dvt1=       0.53                dvt2=          0 V^-1    
       dvt0w=          0 meter^-1      dvt1w=          0 meter^-1
       dvt2w=          0 V^-1           dsub=          0         
        eta0=       0.01                etab=    -0.0042 V^-1    
          u0=  0.0229197 m^2/V/sec         ua= -1.048e-09 m/V     
          ub= 1.2106e-18 (m/V)^2          uc= 6.2252e-11 V^-1    
        vsat=      82072 m/sec            a1=          0 v^-1    
          a2=       0.99               delta=      0.023 V       
        rdsw=    187.119 ohm-um         prwg=        0.2 V^-1    
        prwb=        0.3 V^-1/2           wr=          1         
        pclm=   0.934512             pdiblc1=          0         
     pdiblc2=   0.024526             pdiblcb=  0.0557367 V^-1    
      pscbe1= 7.7384e+08 V/m          pscbe2=    9.2e-21 V/m     
       drout=          0                pvag=          0         
     nfactor=      1.078                cdsc=          0 f/m^2   
       cdscb=          0 f/V/m^2       cdscd=          0 f/V/m^2 
         cit=          0 f/m^2        alpha0=    4.1e-06 m/V     
       beta0=      17.69 V               dlc= 1.8739e-08 meter   
         dwc=          0 meter           clc=      1e-07 meter   
         cle=        0.6                cgso=3.14944e-10 f/m     
        cgdo=3.14944e-10 f/m            cgbo=      1e-13 f/m     
        cgsl=          0 f/m            cgdl=          0 f/m     
      ckappa=        0.6                  cf= 1.4067e-12 f/m     
        acde=        0.4 m/V            moin=        6.9 V^1/2   
        toxm=  4.148e-09 m            dtoxcv=          0 m       
         vfb=    -0.9693 V            alpha1=          0 1/V     
        ijth=        0.1 A              noff=      3.621         
      voffcv=    -0.1372                 tcj=   0.000792 1/K     
       tcjsw=      1e-05 1/K          tcjswg=          0 1/K     
         tpb=  0.0012287 V/K           tpbsw=          0 V/K     
      tpbswg=          0 V/K             llc=          0         
         lwc=          0                lwlc=          0         
         wlc=          0                 wwc=          0         
        wwlc=          0                tnom=     303.15 K       
         kt1=    -0.2357 V              kt1l=          0         
         kt2=      -0.02                 ute=      -1.25         
         ua1=    5.5e-10 m/V             ub1=     -2e-19 (m/V)^2 
         uc1=   -3.5e-12 m/V^2            at=      31512 m/s     
         prt=    -8.0505         
         using Berkeley noise model       noiMod=          2         
        noia=1.87794e+20                noib=    51258.8         
        noic=-5.97434e-13                  em=    4.1e+07         
          ef=   0.843936                  af=          1         
          kf=          0              gdsnoi=-1.23457e-29         
         using Berkeley diodes          not using ACM  
         acm=        12                 hdif=         0 meter    
        ldif=         0 meter             js=   0.00275 amp/m^2  
         jsw=     6e-10 amp/m            xti=         2          
          nj=    1.2928                   cj=0.00133975 f/m^2    
          mj=      0.44                   pb=     0.729 V        
        cjsw=3.67354e-11 f/m             mjsw=    0.0009          
         php (not used)                  pbsw=       0.2 V        
      cjgate (not used)                 cjswg=2.38233e-10 f/m      
       mjswg=       0.8                pbswg=   0.95578 V        
 ***************************************************************************
 ***        model parameters  model name:   0:ppu.0            model type:pmos   ***
 ***************************************************************************

   *** general parameters ***
    deriv=   0.           

   ***  level 49  model parameters  ***

      hspver=    2006.03               level=         49         
     version=        3.2            paramchk=          0         
      apwarn=          1                lite=          0         
      vgslim=          0             binUnit=          2         
      capMod=          3               xpart=          0         
      mobMod=          1              nqsMod=          0         
      stiMod=          0                 elm=          0         
    sfvtflag=          0                 tox=  4.214e-09 meter   
          xj=   1.15e-07 meter       binflag=          0         
        lmin=  1.495e-07 meter          lmax=  1.505e-07 meter   
        wmin=  1.395e-07 meter          wmax=  1.405e-07 meter   
        lref=          0 meter          wref=          0 meter   
        lint=          0 meter          wint=          0 meter   
       lmult=          1               wmult=          1         
          ll=          0                 lln=          1         
          lw=          0                 lwn=          1         
         lwl=          0                  wl=          0         
         wln=          1                  ww=          0         
         wwn=          1                 wwl=          0         
         dwg=          0 m/V             dwb=          0 m/V^1/2 
          xl=          0                  xw=          0         
          a0=     1.6572                 ags=    0.01944 V^-1    
          b0=          0 meter            b1=          0 meter   
        keta=   0.032965 V^-1           voff=   -0.17082 V       
       ngate=      1e+23 cm^-3           vbx=          0 V       
         vbm=         -3 V                xt=   1.55e-07 meter   
        vth0=  -0.878406 V               nch=7.91926e+17 cm^-3   
        nsub=      6e+16 cm^-3           nlx=          0 meter   
      gamma1=          0 V^-1/2       gamma2=          0 V^-1/2  
          k1=    0.48313 V^1/2            k2=  -0.086211         
          k3=          0                 k3b=          0 V^-1    
          w0=      1e-10 meter          dvt0=          0         
        dvt1=      1e-10                dvt2=          0 V^-1    
       dvt0w=          0 meter^-1      dvt1w=      10001 meter^-1
       dvt2w=          0 V^-1           dsub=      1e-10         
        eta0=      0.001                etab=          0 V^-1    
          u0= 0.00341192 m^2/V/sec         ua=-1.5724e-09 m/V     
          ub= 1.0206e-18 (m/V)^2          uc=-2.1234e-11 V^-1    
        vsat=     100410 m/sec            a1=          0 v^-1    
          a2=        0.4               delta=   0.071729 V       
        rdsw=    659.884 ohm-um         prwg=          0 V^-1    
        prwb=          0 V^-1/2           wr=          1         
        pclm=     2.4129             pdiblc1=          0         
     pdiblc2=  0.0238053             pdiblcb=       -0.5 V^-1    
      pscbe1= 7.0054e+08 V/m          pscbe2=      1e-20 V/m     
       drout=      1e-10                pvag=          0         
     nfactor=          2                cdsc=          0 f/m^2   
       cdscb=     0.0005 f/V/m^2       cdscd=          0 f/V/m^2 
         cit=     -0.002 f/m^2        alpha0= 1.3735e-06 m/V     
       beta0=     23.765 V               dlc=   5.67e-09 meter   
         dwc=          0 meter           clc=      1e-07 meter   
         cle=        0.6                cgso=1.34038e-10 f/m     
        cgdo=1.34038e-10 f/m            cgbo=          0 f/m     
        cgsl=9.54827e-12 f/m            cgdl=9.54827e-12 f/m     
      ckappa=        0.6                  cf=    1.2e-11 f/m     
        acde=      0.401 m/V            moin=      18.13 V^1/2   
        toxm=  4.214e-09 m            dtoxcv=          0 m       
         vfb=  -0.387269 V            alpha1=          0 1/V     
        ijth=        0.1 A              noff=        3.9         
      voffcv=   -0.10701                 tcj=  0.0012407 1/K     
       tcjsw= 0.00037357 1/K          tcjswg=      2e-12 1/K     
         tpb=  0.0020386 V/K           tpbsw=   0.001246 V/K     
      tpbswg=          0 V/K             llc=          0         
         lwc=          0                lwlc=          0         
         wlc=          0                 wwc=          0         
        wwlc=          0                tnom=     303.15 K       
         kt1=   -0.50219 V              kt1l=          0         
         kt2=  -0.048934                 ute=       -0.8         
         ua1=-4.1272e-11 m/V             ub1= 4.0968e-19 (m/V)^2 
         uc1= 1.2689e-11 m/V^2            at=     3000.3 m/s     
         prt=    0.49191         
         using Berkeley noise model       noiMod=          1         
        noia=    9.9e+18                noib=       2400         
        noic=    1.4e-12                  em=    4.1e+07         
          ef=          1                  af=          1         
          kf=          0              gdsnoi=-1.23457e-29         
         using Berkeley diodes          not using ACM  
         acm=        12                 hdif=         0 meter    
        ldif=         0 meter             js=2.1483e-05 amp/m^2  
         jsw=  8.04e-10 amp/m            xti=       5.2          
          nj=    1.3632                   cj=0.000738019 f/m^2    
          mj=   0.34629                   pb=    0.6587 V        
        cjsw=9.88889e-11 f/m             mjsw=   0.29781          
         php (not used)                  pbsw=    0.7418 V        
      cjgate (not used)                 cjswg=2.3894e-10 f/m      
       mjswg=    0.9274                pbswg=    1.4338 V        
 

 Warning: Pd = 0 is less than Weff = 1.4e-07 in BSIM3 model 0:npass.0 element m_1 with W = 1.4e-07, L = 1.5e-07

  **warning** (sram1.spice:39) Unable to find referenced node vwl; Output variable ignored. Specify a valid node.
  

  **warning** the following singular supplies were terminated to 1 meg resistor 
          supply       node1            node2
(sram1.spice:12)vvdd                    0:vdd              defined in subckt 0                     0:0                defined in subckt 0               
             
 Warning:'1 connection nodes' occurs 2 times
 Summary of 1 connection from the following nodes:
 -----------------------
 |Node      |Subckt    |
 |----------+----------|
 |rbl0      |0         |
 |rbl1      |0         |
 -----------------------
              
      
 **info** set option symb=1 internally to help for convergence.
 *****************************************************************
 ******  option summary
 ******
 runlvl  = 3         bypass  = 2.0000    
  Opening plot unit= 15
 file=sram1.pa0

 **info** dc convergence successful at Newton-Raphson method 
 ******  
 *

 ****** operating point information tnom=  25.000 temp=  25.000 ******
 ****** operating point status is all       simulation time is     0.     
    node    =voltage      node    =voltage      node    =voltage

 +0:net_1   =   0.      0:net_2   = 5.679e-22 0:net_3   =   0.     
 +0:net_4   = 442.8792m 0:rbl0    = 1.713e-20 0:rbl1    =-4.048e-28
 +0:rwl0    =   0.      0:rwl1    =   0.      0:vdd     =   1.8000 
 +0:wbl     =   0.      0:wblb    =   1.8000  0:wwl     =   0.     
 +1:vdd     = 442.8792m 2:vdd     =   0.     


 maximum nodal capacitance=   6.070E-16         on node     0:net_4           

    nodal  capacitance table 

    node    =    cap      node    =    cap      node    =    cap

 +0:net_1   = 527.3841a 0:net_2   = 114.9608a 0:net_3   = 109.7278a
 +0:net_4   = 607.0390a 0:rbl0    =  68.1528a 0:rbl1    =  66.0937a
 +0:rwl0    = 187.5569a 0:rwl1    = 187.5569a 0:vdd     =   0.     
 +0:wbl     =  48.8671a 0:wblb    =  44.2888a 0:wwl     = 250.1303a
 +1:vdd     =  78.4453a 2:vdd     = 122.5734a

 

 **** voltage sources

 subckt                                                                    
 element  0:vrwl0    0:vrwl1    0:vvdd     0:vwbl     0:vwblb    0:vwwl    
  volts      0.         0.         1.8000     0.         1.8000     0.     
  current    0.         0.        -1.8000u    0.        -3.1671p    0.     
  power      0.         0.         3.2400u    0.         5.7008p    0.     

     total voltage source power dissipation=    3.2400u       watts




 **** mosfets


 subckt                                                                    
 element  0:m_1      0:m_2      0:m_3      0:m_4      0:m_5      0:m_6     
 model    0:npass.0  0:npass.0  0:npd.0    0:npass.0  0:npd.0    0:npass.0 
 region   Cutoff     Cutoff     Cutoff     Cutoff     Cutoff     Subth     
  id         0.         1.3529a    0.         0.         0.         0.     
  ibs        0.       -10.0000f    0.         0.         0.         0.     
  ibd        0.       -10.0000f    0.         0.         0.         0.     
  vgs        0.      -442.8792m -1.713e-20 -5.679e-22    0.       442.8792m
  vds        0.         1.3571  -1.656e-20 -5.679e-22 -4.048e-28    0.     
  vbs        0.      -442.8792m -1.713e-20 -5.679e-22    0.         0.     
  vth      681.6529m  703.2632m  743.9195m  681.6529m  743.9195m  681.6529m
  vdsat     43.1954m   45.5089m   49.0031m   43.1954m   49.0031m   44.0727m
  vod     -681.6529m   -1.1461  -743.9195m -681.6529m -743.9195m -238.7738m
  beta     186.4353u  191.3829u  351.0012u  186.4353u  351.0012u  186.4993u
  gam eff  777.3202m  830.0024m  704.6953m  777.3202m  704.6953m  777.3202m
  gm         0.        33.7441a    0.         0.         0.         0.     
  gds        7.3617p    1.1801a  128.4175f    7.3617p  128.4175f  162.9951n
  gmb        0.         7.4258a    0.         0.         0.         0.     
  cdtot     43.2491a   44.2888a   66.0937a   43.2491a   66.0937a   41.5750a
  cgtot    125.5455a  124.5848a  187.5569a  125.5455a  187.5569a  140.4646a
  cstot     48.8671a   44.3178a   68.1528a   48.8671a   68.1528a   89.1639a
  cbtot     36.3693a   35.9813a   54.4889a   36.3693a   54.4889a   31.3710a
  cgs       47.3766a   44.3242a   67.7877a   47.3766a   67.7877a   74.3342a
  cgd       42.3669a   44.2888a   65.4945a   42.3669a   65.4945a   41.5050a



 subckt   xinvm      xinvm      xinv       xinv      
 element  1:m_1      1:m_2      2:m_1      2:m_2     
 model    0:ppu.0    0:npd.0    0:ppu.0    0:npd.0   
 region   Cutoff     Cutoff     Cutoff     Subth     
  id       4.464e-27    8.4848f    0.         0.     
  ibs        0.         0.         0.         0.     
  ibd        0.       -10.0000f    0.         0.     
  vgs     -442.8792m    0.       442.8792m  442.8792m
  vds       55.5112a  442.8792m    0.         0.     
  vbs        0.         0.         0.         0.     
  vth     -886.6886m  730.6331m -886.6886m  743.9195m
  vdsat    -41.1186m   49.0077m  -41.1152m   49.0929m
  vod      443.8094m -730.6331m    1.3296  -301.0404m
  beta      51.0388u  350.4406u   51.0387u  351.0033u
  gam eff  648.3374m  704.6953m  648.3374m  704.6953m
  gm       1.216e-25  234.3822f    0.         0.     
  gds       80.4185p   10.9764f  1.954e-21   23.9277n
  gmb      3.226e-26   54.8889f    0.         0.     
  cdtot     18.5182a   66.4269a   21.2103a   63.6877a
  cgtot     86.2516a  187.4401a  143.7554a  193.5560a
  cstot     41.9603a   66.8972a   21.1555a  104.9831a
  cbtot     36.4850a   54.4664a  101.4179a   44.4273a
  cgs       35.3722a   66.6995a   21.1568a   96.5768a
  cgd       17.9305a   66.4282a   21.1946a   57.9392a



 ******
 *

 ****** transient analysis tnom=  25.000 temp=  25.000 ******
x

 time         voltage    voltage    voltage    voltage    
             wwl        rwl0       rwl1       rbl0        
    0.          0.         0.         0.       1.7130e-20 
    1.00000n    0.         0.         0.       1.7289e-20 
    2.00000n    0.         0.         0.       1.7498e-20 
    3.00000n    0.         0.         0.       1.7712e-20 
    4.00000n    0.         0.         0.       1.7927e-20 
    5.00000n    0.         0.         0.       1.8150e-20 
    6.00000n    1.8000     0.         0.         2.2697u  
    7.00000n    1.8000     0.         0.         3.7628u  
    8.00000n    1.8000     0.         0.         4.0247u  
    9.00000n    1.8000     0.         0.         3.9200u  
   10.00000n    1.8000     0.         0.         3.9423u  
   11.00000n    0.         0.         0.         5.6038u  
   12.00000n    0.         0.         0.         5.6242u  
   13.00000n    0.         0.         0.         5.5543u  
   14.00000n    0.         0.         0.         5.6862u  
   15.00000n    0.         0.         0.         5.8180u  
   16.00000n    1.8000     1.8000     0.       788.3302m  
   17.00000n    1.8000     1.8000     0.       788.3110m  
   18.00000n    1.8000     1.8000     0.       788.2804m  
   19.00000n    1.8000     1.8000     0.       788.2808m  
   20.00000n    1.8000     1.8000     0.       788.2560m  
   21.00000n    0.         0.         0.      -435.2633m  
   22.00000n    0.         0.         0.      -393.9008m  
   23.00000n    0.         0.         0.      -374.9146m  
   24.00000n    0.         0.         0.      -362.9046m  
   25.00000n    0.         0.         0.      -352.7626m  
   26.00000n    0.         0.         0.      -346.0541m  
   27.00000n    0.         0.         0.      -340.0892m  
   28.00000n    0.         0.         0.      -334.1243m  
   29.00000n    0.         0.         0.      -329.7678m  
   30.00000n    0.         0.         0.      -326.2028m  
   31.00000n    0.         0.         0.      -322.6377m  
   32.00000n    0.         0.         0.      -319.0726m  
   33.00000n    0.         0.         0.      -315.5076m  
   34.00000n    0.         0.         0.      -312.7812m  
   35.00000n    0.         0.         0.      -310.4675m  
   36.00000n    0.         0.         0.      -308.1538m  
   37.00000n    0.         0.         0.      -305.8401m  
   38.00000n    0.         0.         0.      -303.5264m  
   39.00000n    0.         0.         0.      -301.6242m  
   40.00000n    0.         0.         0.      -299.9245m  
   41.00000n    0.         0.         0.      -298.2249m  
   42.00000n    0.         0.         0.      -296.5252m  
   43.00000n    0.         0.         0.      -294.8256m  
   44.00000n    0.         0.         0.      -293.2876m  
   45.00000n    0.         0.         0.      -291.8292m  
y
x

 time         voltage    
             rbl1        
    0.       -4.0477e-28 
    1.00000n -1.5141e-24 
    2.00000n  1.2948e-25 
    3.00000n  2.7242e-24 
    4.00000n  5.6025e-24 
    5.00000n  1.0223e-23 
    6.00000n    5.5829m  
    7.00000n    4.0630m  
    8.00000n    2.7931m  
    9.00000n    1.7040m  
   10.00000n  717.3557u  
   11.00000n  -51.3908u  
   12.00000n -755.0894u  
   13.00000n   -1.3824m  
   14.00000n   -1.9588m  
   15.00000n   -2.5351m  
   16.00000n   -6.8639m  
   17.00000n   -6.8633m  
   18.00000n   -6.8626m  
   19.00000n   -6.8625m  
   20.00000n   -6.8620m  
   21.00000n   -6.8620m  
   22.00000n   -6.8618m  
   23.00000n   -6.8615m  
   24.00000n   -6.8612m  
   25.00000n   -6.8610m  
   26.00000n   -6.8608m  
   27.00000n   -6.8605m  
   28.00000n   -6.8602m  
   29.00000n   -6.8599m  
   30.00000n   -6.8597m  
   31.00000n   -6.8595m  
   32.00000n   -6.8592m  
   33.00000n   -6.8590m  
   34.00000n   -6.8587m  
   35.00000n   -6.8584m  
   36.00000n   -6.8582m  
   37.00000n   -6.8579m  
   38.00000n   -6.8576m  
   39.00000n   -6.8574m  
   40.00000n   -6.8571m  
   41.00000n   -6.8569m  
   42.00000n   -6.8567m  
   43.00000n   -6.8564m  
   44.00000n   -6.8561m  
   45.00000n   -6.8558m  
y

          ***** job concluded
 ******  
 *

 ****** job statistics summary tnom=  25.000 temp=  25.000 ******
  
 ******  Machine Information  ******
 CPU:
 model name	: Intel(R) Xeon(R) CPU E5-4617 0 @ 2.90GHz
 cpu MHz	: 2900.000
 CPU(s)		: 12
  
 OS:
 Linux version 3.10.0-1160.42.2.el7.x86_64 (mockbuild@x86-vm-40.build.eng.bos.redhat.com) (gcc version 4.8.5 20150623 (Red Hat 4.8.5-44) (GCC) ) #1 SMP Tue Aug 31 20:15:00 UTC 2021

 System loadavg : 3.32 8.78 7.92 2/3786 43538


  ******  HSPICE Threads Information  ******

  Command Line Threads Count :     1
  Available CPU Count        :    12
  Actual Threads Count       :     1


  ****** Statistics of Ignored Elements ******
  Voltage Sources :       1

  ******  Circuit Statistics  ******
  # nodes       =      15 # elements   =      17
  # resistors   =       1 # capacitors =       0 # inductors   =       0
  # mutual_inds =       0 # vccs       =       0 # vcvs        =       0
  # cccs        =       0 # ccvs       =       0 # volt_srcs   =       6
  # curr_srcs   =       0 # diodes     =       0 # bjts        =       0
  # jfets       =       0 # mosfets    =      10 # U elements  =       0
  # T elements  =       0 # W elements =       0 # B elements  =       0
  # S elements  =       0 # P elements =       0 # va device   =       0
  # vector_srcs =       0 # N elements =       0


  ******  Runtime Statistics (seconds)  ******

  analysis           time    # points   tot. iter  conv.iter
  op point           0.01           1          17
  transient          0.01          46         327          98 rev=        10
  readin             0.25
  errchk             0.01
  setup              0.01
  output             0.00


           peak memory used        633.88 megabytes
           total cpu time            0.29 seconds
           total elapsed time        0.36 seconds
           job started at     09:46:56 12/09/2021
           job ended   at     09:46:56 12/09/2021

>info:         ***** hspice job concluded
           job total runtime         0.36 seconds


 lic: Release hspice token(s) 
 lic: total license checkout elapse time:        0.05(s)
