
No compatibility mode selected!


Circuit: ** sch_path: /home/abishek/sram_work/osu-toy-sram/custom_layout/10t_4x4.sch

Error on line 0 :
  m.x1.x1.xm1.msky130_fd_pr__nfet_01v8 x1.net1 x1.net2 0 0 x1.x1.xm1:sky130_fd_pr__nfet_01v8__model l=    1.500000000000000e-01     w=    2.100000000000000e-01     nf=    1.000000000000000e+00     ad=    6.090000000000000e-02     as=    6.090000000000000e-02     pd=    1.000000000000000e+00     ps=    1.000000000000000e+00     nrd=    1.380952380952381e+00     nrs=    1.380952380952381e+00     sa=    0.000000000000000e+00     sb=    0.000000000000000e+00     sd=    0.000000000000000e+00     m=    1.000000000000000e+00   
could not find a valid modelname
    Simulation interrupted due to error!

Error: circuit not parsed.

Note: no resource usage information for 'time',
	or no active circuit available

Total elapsed time (seconds) = 34.849 

Total DRAM available = 128721.316 MB.
DRAM currently available = 114357.402 MB.
Maximum ngspice program size =  730.930 MB.
Current ngspice program size =  658.039 MB.

Shared ngspice pages =    3.664 MB.
Text (code) pages =    7.453 MB.
Stack = 0 bytes.
Library pages =  654.406 MB.

