* HSPICE file created from 10T_toy_magic.ext - technology: sky130A

.subckt 10T_toy_magic WWL RWL0 RWL1 WBL WBLb RBL0 RBL1 VDD GND
X0 net1 WWl WBL net2   sky130_fd_pr__nfet_01v8 L=0.15 W=0.14
X1 net3 RWL0 RBL0 net2 sky130_fd_pr__nfet_01v8 L=0.15 W=0.21
X2 WBLb WWl net4 net2  sky130_fd_pr__nfet_01v8 L=0.15 W=0.14
X3 net4 net1 VDD net5  sky130_fd_pr__pfet_01v8 L=0.15 W=0.14
X4 VDD net4 net1 net5  sky130_fd_pr__pfet_01v8 L=0.15 W=0.14
X5 net4 net1 GND net2  sky130_fd_pr__nfet_01v8 L=0.15 W=0.21
X6 GND net1 net3 net2  sky130_fd_pr__nfet_01v8 L=0.15 W=0.14
X7 RBL1 RWL1 net6 net2 sky130_fd_pr__nfet_01v8 L=0.15 W=0.21
X8 GND net4 net1 net2  sky130_fd_pr__nfet_01v8 L=0.15 W=0.21
X9 net6 net4 GND net2  sky130_fd_pr__nfet_01v8 L=0.15 W=0.14
.ends

.end
